file 102455 1627394515                                          
version 2
run Default-0-20210727-13:59:43-10207
attr configname Default
attr datetime 20210727-13:59:43
attr experiment Default
attr inifile highway.ini
attr iterationvars ""
attr iterationvarsf ""
attr measurement ""
attr network StopScenario
attr processid 10207
attr repetition 0
attr replication #0
attr resultdir results
attr runnumber 0
attr seedset 0
param *.playgroundSizeX 2500m
param *.playgroundSizeY 2500m
param *.playgroundSizeZ 50m
param *.annotations.draw true
param *.obstacles.obstacles "xmldoc(\"config.xml\", \"//AnalogueModel[@type='SimpleObstacleShadowing']/obstacles\")"
param *.manager.updateInterval 1s
param *.manager.host "\"localhost\""
param *.manager.port 9999
param *.manager.autoShutdown true
param *.manager.launchConfig "xmldoc(\"highway.launchd.xml\")"
param *.connectionManager.sendDirect true
param *.connectionManager.maxInterfDist 2600m
param *.connectionManager.drawMaxIntfDist false
param *.**.nic.mac1609_4.useServiceChannel false
param *.**.nic.mac1609_4.txPower 20mW
param *.**.nic.mac1609_4.bitrate 6Mbps
param *.**.nic.phy80211p.minPowerLevel -110dBm
param *.**.nic.phy80211p.useNoiseFloor true
param *.**.nic.phy80211p.noiseFloor -98dBm
param *.**.nic.phy80211p.decider "xmldoc(\"config.xml\")"
param *.**.nic.phy80211p.analogueModels "xmldoc(\"config.xml\")"
param *.**.nic.phy80211p.usePropagationDelay true
param *.**.nic.phy80211p.antenna "xmldoc(\"antenna.xml\", \"/root/Antenna[@id='monopole']\")"
param *.node[*].nic.phy80211p.antennaOffsetY "0 m"
param *.node[*].nic.phy80211p.antennaOffsetZ "1.895 m"
param *.node[*].applType "\"FloodingApp\""
param *.node[*].appl.headerLength "80 bit"
param *.node[*].appl.sendBeacons false
param *.node[*].appl.dataOnSch false
param *.node[*].appl.beaconInterval 1s
param *.node[*].veinsmobility.x 0
param *.node[*].veinsmobility.y 0
param *.node[*].veinsmobility.z 0
param *.node[*].veinsmobility.setHostSpeed false
param *.node[0].veinsmobility.accidentCount 1
param *.node[0].veinsmobility.accidentStart 1s
param *.node[0].veinsmobility.accidentDuration 10s

vector 0 StopScenario.node[0].veinsmobility posx ETV
vector 1 StopScenario.node[0].veinsmobility posy ETV
vector 2 StopScenario.node[1].veinsmobility posx ETV
vector 3 StopScenario.node[1].veinsmobility posy ETV
vector 4 StopScenario.node[2].veinsmobility posx ETV
vector 5 StopScenario.node[2].veinsmobility posy ETV
vector 6 StopScenario.node[3].veinsmobility posx ETV
vector 7 StopScenario.node[3].veinsmobility posy ETV
vector 8 StopScenario.node[4].veinsmobility posx ETV
vector 9 StopScenario.node[4].veinsmobility posy ETV
vector 10 StopScenario.node[5].veinsmobility posx ETV
vector 11 StopScenario.node[5].veinsmobility posy ETV
vector 12 StopScenario.node[6].veinsmobility posx ETV
vector 13 StopScenario.node[6].veinsmobility posy ETV
vector 14 StopScenario.node[7].veinsmobility posx ETV
vector 15 StopScenario.node[7].veinsmobility posy ETV
vector 16 StopScenario.node[8].veinsmobility posx ETV
vector 17 StopScenario.node[8].veinsmobility posy ETV
vector 18 StopScenario.node[9].veinsmobility posx ETV
vector 19 StopScenario.node[9].veinsmobility posy ETV
vector 20 StopScenario.node[10].veinsmobility posx ETV
vector 21 StopScenario.node[10].veinsmobility posy ETV
vector 22 StopScenario.node[11].veinsmobility posx ETV
vector 23 StopScenario.node[11].veinsmobility posy ETV
vector 24 StopScenario.node[12].veinsmobility posx ETV
vector 25 StopScenario.node[12].veinsmobility posy ETV
vector 26 StopScenario.node[13].veinsmobility posx ETV
vector 27 StopScenario.node[13].veinsmobility posy ETV
vector 28 StopScenario.node[14].veinsmobility posx ETV
vector 29 StopScenario.node[14].veinsmobility posy ETV
vector 30 StopScenario.node[15].veinsmobility posx ETV
vector 31 StopScenario.node[15].veinsmobility posy ETV
vector 32 StopScenario.node[16].veinsmobility posx ETV
vector 33 StopScenario.node[16].veinsmobility posy ETV
vector 34 StopScenario.node[17].veinsmobility posx ETV
vector 35 StopScenario.node[17].veinsmobility posy ETV
vector 36 StopScenario.node[18].veinsmobility posx ETV
vector 37 StopScenario.node[18].veinsmobility posy ETV
vector 38 StopScenario.node[19].veinsmobility posx ETV
vector 39 StopScenario.node[19].veinsmobility posy ETV
vector 40 StopScenario.node[20].veinsmobility posx ETV
vector 41 StopScenario.node[20].veinsmobility posy ETV
vector 42 StopScenario.node[21].veinsmobility posx ETV
vector 43 StopScenario.node[21].veinsmobility posy ETV
vector 44 StopScenario.node[22].veinsmobility posx ETV
vector 45 StopScenario.node[22].veinsmobility posy ETV
vector 46 StopScenario.node[23].veinsmobility posx ETV
vector 47 StopScenario.node[23].veinsmobility posy ETV
vector 48 StopScenario.node[24].veinsmobility posx ETV
vector 49 StopScenario.node[24].veinsmobility posy ETV
vector 50 StopScenario.node[25].veinsmobility posx ETV
vector 51 StopScenario.node[25].veinsmobility posy ETV
vector 52 StopScenario.node[26].veinsmobility posx ETV
vector 53 StopScenario.node[26].veinsmobility posy ETV
vector 54 StopScenario.node[27].veinsmobility posx ETV
vector 55 StopScenario.node[27].veinsmobility posy ETV
vector 56 StopScenario.node[28].veinsmobility posx ETV
vector 57 StopScenario.node[28].veinsmobility posy ETV
vector 58 StopScenario.node[29].veinsmobility posx ETV
vector 59 StopScenario.node[29].veinsmobility posy ETV
vector 60 StopScenario.node[30].veinsmobility posx ETV
vector 61 StopScenario.node[30].veinsmobility posy ETV
vector 62 StopScenario.node[31].veinsmobility posx ETV
vector 63 StopScenario.node[31].veinsmobility posy ETV
vector 64 StopScenario.node[32].veinsmobility posx ETV
vector 65 StopScenario.node[32].veinsmobility posy ETV
vector 66 StopScenario.node[33].veinsmobility posx ETV
vector 67 StopScenario.node[33].veinsmobility posy ETV
vector 68 StopScenario.node[34].veinsmobility posx ETV
vector 69 StopScenario.node[34].veinsmobility posy ETV
vector 70 StopScenario.node[35].veinsmobility posx ETV
vector 71 StopScenario.node[35].veinsmobility posy ETV
vector 72 StopScenario.node[36].veinsmobility posx ETV
vector 73 StopScenario.node[36].veinsmobility posy ETV
vector 74 StopScenario.node[37].veinsmobility posx ETV
vector 75 StopScenario.node[37].veinsmobility posy ETV
vector 76 StopScenario.node[38].veinsmobility posx ETV
vector 77 StopScenario.node[38].veinsmobility posy ETV
vector 78 StopScenario.node[39].veinsmobility posx ETV
vector 79 StopScenario.node[39].veinsmobility posy ETV
vector 80 StopScenario.node[40].veinsmobility posx ETV
vector 81 StopScenario.node[40].veinsmobility posy ETV
vector 82 StopScenario.node[41].veinsmobility posx ETV
vector 83 StopScenario.node[41].veinsmobility posy ETV
vector 84 StopScenario.node[42].veinsmobility posx ETV
vector 85 StopScenario.node[42].veinsmobility posy ETV
vector 86 StopScenario.node[43].veinsmobility posx ETV
vector 87 StopScenario.node[43].veinsmobility posy ETV
vector 88 StopScenario.node[44].veinsmobility posx ETV
vector 89 StopScenario.node[44].veinsmobility posy ETV
vector 90 StopScenario.node[45].veinsmobility posx ETV
vector 91 StopScenario.node[45].veinsmobility posy ETV
vector 92 StopScenario.node[46].veinsmobility posx ETV
vector 93 StopScenario.node[46].veinsmobility posy ETV
vector 94 StopScenario.node[47].veinsmobility posx ETV
vector 95 StopScenario.node[47].veinsmobility posy ETV
vector 96 StopScenario.node[48].veinsmobility posx ETV
vector 97 StopScenario.node[48].veinsmobility posy ETV
vector 98 StopScenario.node[49].veinsmobility posx ETV
vector 99 StopScenario.node[49].veinsmobility posy ETV
vector 100 StopScenario.node[50].veinsmobility posx ETV
vector 101 StopScenario.node[50].veinsmobility posy ETV
vector 102 StopScenario.node[51].veinsmobility posx ETV
vector 103 StopScenario.node[51].veinsmobility posy ETV
vector 104 StopScenario.node[52].veinsmobility posx ETV
vector 105 StopScenario.node[52].veinsmobility posy ETV
vector 106 StopScenario.node[53].veinsmobility posx ETV
vector 107 StopScenario.node[53].veinsmobility posy ETV
vector 108 StopScenario.node[54].veinsmobility posx ETV
vector 109 StopScenario.node[54].veinsmobility posy ETV
vector 110 StopScenario.node[55].veinsmobility posx ETV
vector 111 StopScenario.node[55].veinsmobility posy ETV
vector 112 StopScenario.node[56].veinsmobility posx ETV
vector 113 StopScenario.node[56].veinsmobility posy ETV
vector 114 StopScenario.node[57].veinsmobility posx ETV
vector 115 StopScenario.node[57].veinsmobility posy ETV
vector 116 StopScenario.node[58].veinsmobility posx ETV
vector 117 StopScenario.node[58].veinsmobility posy ETV
vector 118 StopScenario.node[59].veinsmobility posx ETV
vector 119 StopScenario.node[59].veinsmobility posy ETV
vector 120 StopScenario.node[60].veinsmobility posx ETV
vector 121 StopScenario.node[60].veinsmobility posy ETV
vector 122 StopScenario.node[61].veinsmobility posx ETV
vector 123 StopScenario.node[61].veinsmobility posy ETV
vector 124 StopScenario.node[62].veinsmobility posx ETV
vector 125 StopScenario.node[62].veinsmobility posy ETV
vector 126 StopScenario.node[63].veinsmobility posx ETV
vector 127 StopScenario.node[63].veinsmobility posy ETV
0	9091 22 2 2 1 1 1 32.846147544902 32.846147544902 32.846147544902 1078.8694085415
1	9113 12 2 2 1 1 1 17.25 17.25 17.25 297.5625
2	9125 22 2 2 1 1 1 172.87380117974 172.87380117974 172.87380117974 29885.351134333
3	9147 12 2 2 1 1 1 20.35 20.35 20.35 414.1225
4	9159 22 2 2 1 1 1 188.33913808997 188.33913808997 188.33913808997 35471.630936472
5	9181 12 2 2 1 1 1 17.25 17.25 17.25 297.5625
6	9193 22 2 2 1 1 1 203.89926989592 203.89926989592 203.89926989592 41574.912264091
7	9215 12 2 2 1 1 1 17.25 17.25 17.25 297.5625
8	9227 22 2 2 1 1 1 219.11094026947 219.11094026947 219.11094026947 48009.60414577
9	9249 12 2 2 1 1 1 20.35 20.35 20.35 414.1225
10	9261 23 2 2 1 1 1 234.58821207924 234.58821207924 234.58821207924 55031.629246534
11	9284 13 2 2 1 1 1 17.25 17.25 17.25 297.5625
12	9297 23 2 2 1 1 1 250.26011297449 250.26011297449 250.26011297449 62630.124146002
13	9320 13 2 2 1 1 1 20.35 20.35 20.35 414.1225
14	9333 23 2 2 1 1 1 265.84064044005 265.84064044005 265.84064044005 70671.246109578
15	9356 13 2 2 1 1 1 17.25 17.25 17.25 297.5625
16	9369 23 2 2 1 1 1 281.35434175658 281.35434175658 281.35434175658 79160.265625278
17	9392 13 2 2 1 1 1 20.35 20.35 20.35 414.1225
18	9405 23 2 2 1 1 1 296.81235732921 296.81235732921 296.81235732921 88097.575463325
19	9428 13 2 2 1 1 1 17.25 17.25 17.25 297.5625
20	9441 23 2 2 1 1 1 312.35367439167 312.35367439167 312.35367439167 97564.817905979
21	9464 13 2 2 1 1 1 20.35 20.35 20.35 414.1225
22	9477 23 2 2 1 1 1 48.666104139486 48.666104139486 48.666104139486 2368.3896921153
23	9500 13 2 2 1 1 1 20.35 20.35 20.35 414.1225
24	9513 22 2 2 1 1 1 327.9536022102 327.9536022102 327.9536022102 107553.56520265
25	9535 13 2 2 1 1 1 17.25 17.25 17.25 297.5625
26	9548 23 2 2 1 1 1 343.44587619735 343.44587619735 343.44587619735 117955.06987697
27	9571 13 2 2 1 1 1 17.25 17.25 17.25 297.5625
28	9584 23 2 2 1 1 1 358.91890893418 358.91890893418 358.91890893418 128822.7831905
29	9607 13 2 2 1 1 1 20.35 20.35 20.35 414.1225
30	9620 23 2 2 1 1 1 374.38968078871 374.38968078871 374.38968078871 140167.63308107
31	9643 13 2 2 1 1 1 17.25 17.25 17.25 297.5625
32	9656 23 2 2 1 1 1 389.91878999513 389.91878999513 389.91878999513 152036.66279127
33	9679 13 2 2 1 1 1 17.25 17.25 17.25 297.5625
34	9692 23 2 2 1 1 1 405.38735804199 405.38735804199 405.38735804199 164338.91006027
35	9715 13 2 2 1 1 1 20.35 20.35 20.35 414.1225
36	9728 23 2 2 1 1 1 420.87974568589 420.87974568589 420.87974568589 177139.76032862
37	9751 13 2 2 1 1 1 17.25 17.25 17.25 297.5625
38	9764 23 2 2 1 1 1 436.41679376955 436.41679376955 436.41679376955 190459.6178841
39	9787 13 2 2 1 1 1 17.25 17.25 17.25 297.5625
40	9800 23 2 2 1 1 1 451.89635718555 451.89635718555 451.89635718555 204210.31763757
41	9823 13 2 2 1 1 1 17.25 17.25 17.25 297.5625
42	9836 23 2 2 1 1 1 467.36234075195 467.36234075195 467.36234075195 218427.55755314
43	9859 13 2 2 1 1 1 17.25 17.25 17.25 297.5625
44	9872 22 2 2 1 1 1 64.33621685823 64.33621685823 64.33621685823 4139.1487996292
45	9894 13 2 2 1 1 1 17.25 17.25 17.25 297.5625
46	9907 23 2 2 1 1 1 482.85037617444 482.85037617444 482.85037617444 233144.4857718
47	9930 13 2 2 1 1 1 17.25 17.25 17.25 297.5625
48	9943 23 2 2 1 1 1 498.34752134019 498.34752134019 498.34752134019 248350.25202591
49	9966 13 2 2 1 1 1 17.25 17.25 17.25 297.5625
50	9979 23 2 2 1 1 1 513.83658520181 513.83658520181 513.83658520181 264028.03629186
51	10002 13 2 2 1 1 1 17.25 17.25 17.25 297.5625
52	10015 23 2 2 1 1 1 529.33011805724 529.33011805724 529.33011805724 280190.37388249
53	10038 13 2 2 1 1 1 17.25 17.25 17.25 297.5625
54	10051 23 2 2 1 1 1 544.86731467827 544.86731467827 544.86731467827 296880.39060471
55	10074 13 2 2 1 1 1 17.25 17.25 17.25 297.5625
56	10087 23 2 2 1 1 1 560.36760282936 560.36760282936 560.36760282936 314011.85030073
57	10110 13 2 2 1 1 1 17.25 17.25 17.25 297.5625
58	10123 23 2 2 1 1 1 575.85002514275 575.85002514275 575.85002514275 331603.2514569
59	10146 13 2 2 1 1 1 17.25 17.25 17.25 297.5625
60	10159 23 2 2 1 1 1 591.33613082639 591.33613082639 591.33613082639 349678.41962073
61	10182 13 2 2 1 1 1 17.25 17.25 17.25 297.5625
62	10195 22 2 2 1 1 1 606.8050788224 606.8050788224 606.8050788224 368212.40368466
63	10217 13 2 2 1 1 1 17.25 17.25 17.25 297.5625
64	10230 23 2 2 1 1 1 622.30564439284 622.30564439284 622.30564439284 387264.31504319
65	10253 13 2 2 1 1 1 17.25 17.25 17.25 297.5625
66	10266 23 2 2 1 1 1 79.711925792091 79.711925792091 79.711925792091 6353.9911134838
67	10289 13 2 2 1 1 1 20.35 20.35 20.35 414.1225
68	10302 22 2 2 1 1 1 637.9127169252 637.9127169252 637.9127169252 406932.63441489
69	10324 13 2 2 1 1 1 17.25 17.25 17.25 297.5625
70	10337 23 2 2 1 1 1 653.40078566787 653.40078566787 653.40078566787 426932.58671139
71	10360 13 2 2 1 1 1 17.25 17.25 17.25 297.5625
72	10373 23 2 2 1 1 1 668.88498649213 668.88498649213 668.88498649213 447407.12515458
73	10396 13 2 2 1 1 1 17.25 17.25 17.25 297.5625
74	10409 23 2 2 1 1 1 684.35819702087 684.35819702087 684.35819702087 468346.14182966
75	10432 13 2 2 1 1 1 17.25 17.25 17.25 297.5625
76	10445 23 2 2 1 1 1 699.83751779541 699.83751779541 699.83751779541 489772.55131405
77	10468 13 2 2 1 1 1 17.25 17.25 17.25 297.5625
78	10481 23 2 2 1 1 1 715.33160101674 715.33160101674 715.33160101674 511699.29941318
79	10504 13 2 2 1 1 1 17.25 17.25 17.25 297.5625
80	10517 22 2 2 1 1 1 730.8169761991 730.8169761991 730.8169761991 534093.45270079
81	10539 13 2 2 1 1 1 17.25 17.25 17.25 297.5625
82	10552 23 2 2 1 1 1 746.38307495424 746.38307495424 746.38307495424 557087.69457814
83	10575 13 2 2 1 1 1 17.25 17.25 17.25 297.5625
84	10588 23 2 2 1 1 1 761.86573900852 761.86573900852 761.86573900852 580439.404275
85	10611 13 2 2 1 1 1 17.25 17.25 17.25 297.5625
86	10624 23 2 2 1 1 1 777.35849998076 777.35849998076 777.35849998076 604286.23749234
87	10647 13 2 2 1 1 1 17.25 17.25 17.25 297.5625
88	10660 23 2 2 1 1 1 95.212550539829 95.212550539829 95.212550539829 9065.4297802994
89	10683 13 2 2 1 1 1 17.25 17.25 17.25 297.5625
90	10696 23 2 2 1 1 1 792.85561831828 792.85561831828 792.85561831828 628620.03149886
91	10719 13 2 2 1 1 1 17.25 17.25 17.25 297.5625
92	10732 23 2 2 1 1 1 808.33330016784 808.33330016784 808.33330016784 653402.72416022
93	10755 13 2 2 1 1 1 17.25 17.25 17.25 297.5625
94	10768 23 2 2 1 1 1 823.80876786553 823.80876786553 823.80876786553 678660.88601212
95	10791 13 2 2 1 1 1 17.25 17.25 17.25 297.5625
96	10804 23 2 2 1 1 1 839.30038110679 839.30038110679 839.30038110679 704425.129726
97	10827 13 2 2 1 1 1 17.25 17.25 17.25 297.5625
98	10840 23 2 2 1 1 1 854.78619154823 854.78619154823 854.78619154823 730659.43326152
99	10863 13 2 2 1 1 1 17.25 17.25 17.25 297.5625
100	10876 24 2 2 1 1 1 870.27336080712 870.27336080712 870.27336080712 757375.72253051
101	10900 14 2 2 1 1 1 17.25 17.25 17.25 297.5625
102	10914 24 2 2 1 1 1 885.75503329576 885.75503329576 885.75503329576 784561.97900877
103	10938 14 2 2 1 1 1 17.25 17.25 17.25 297.5625
104	10952 24 2 2 1 1 1 901.23551320503 901.23551320503 901.23551320503 812225.45026193
105	10976 14 2 2 1 1 1 17.25 17.25 17.25 297.5625
106	10990 24 2 2 1 1 1 916.72050465361 916.72050465361 916.72050465361 840376.48365236
107	11014 14 2 2 1 1 1 17.25 17.25 17.25 297.5625
108	11028 24 2 2 1 1 1 932.21616352947 932.21616352947 932.21616352947 869026.97554561
109	11052 14 2 2 1 1 1 17.25 17.25 17.25 297.5625
110	11066 24 2 2 1 1 1 110.67348536512 110.67348536512 110.67348536512 12248.620362863
111	11090 14 2 2 1 1 1 20.35 20.35 20.35 414.1225
112	11104 24 2 2 1 1 1 947.84203585361 947.84203585361 947.84203585361 898404.52493111
113	11128 14 2 2 1 1 1 17.25 17.25 17.25 297.5625
114	11142 24 2 2 1 1 1 963.32703585361 963.32703585361 963.32703585361 927998.9780065
115	11166 14 2 2 1 1 1 17.25 17.25 17.25 297.5625
116	11180 24 2 2 1 1 1 978.81203585361 978.81203585361 978.81203585361 958073.00153188
117	11204 14 2 2 1 1 1 17.25 17.25 17.25 297.5625
118	11218 24 2 2 1 1 1 994.29703585361 994.29703585361 994.29703585361 988626.59550727
119	11242 14 2 2 1 1 1 17.25 17.25 17.25 297.5625
120	11256 24 2 2 1 1 1 1009.7820358536 1009.7820358536 1009.7820358536 1019659.7599327
121	11280 14 2 2 1 1 1 17.25 17.25 17.25 297.5625
122	11294 24 2 2 1 1 1 126.23446244855 126.23446244855 126.23446244855 15935.139509675
123	11318 14 2 2 1 1 1 17.25 17.25 17.25 297.5625
124	11332 24 2 2 1 1 1 141.83154080873 141.83154080873 141.83154080873 20116.185968178
125	11356 14 2 2 1 1 1 20.35 20.35 20.35 414.1225
126	11370 24 2 2 1 1 1 157.34561424075 157.34561424075 157.34561424075 24757.642320799
127	11394 14 2 2 1 1 1 17.25 17.25 17.25 297.5625
vector 128 StopScenario.node[0].veinsmobility speed ETV
vector 129 StopScenario.node[1].veinsmobility speed ETV
vector 130 StopScenario.node[2].veinsmobility speed ETV
vector 131 StopScenario.node[3].veinsmobility speed ETV
vector 132 StopScenario.node[4].veinsmobility speed ETV
vector 133 StopScenario.node[5].veinsmobility speed ETV
vector 134 StopScenario.node[6].veinsmobility speed ETV
vector 135 StopScenario.node[7].veinsmobility speed ETV
vector 136 StopScenario.node[8].veinsmobility speed ETV
vector 137 StopScenario.node[9].veinsmobility speed ETV
vector 138 StopScenario.node[10].veinsmobility speed ETV
vector 139 StopScenario.node[11].veinsmobility speed ETV
vector 140 StopScenario.node[12].veinsmobility speed ETV
vector 141 StopScenario.node[13].veinsmobility speed ETV
vector 142 StopScenario.node[14].veinsmobility speed ETV
vector 143 StopScenario.node[15].veinsmobility speed ETV
vector 144 StopScenario.node[16].veinsmobility speed ETV
vector 145 StopScenario.node[17].veinsmobility speed ETV
vector 146 StopScenario.node[18].veinsmobility speed ETV
vector 147 StopScenario.node[19].veinsmobility speed ETV
vector 148 StopScenario.node[20].veinsmobility speed ETV
vector 149 StopScenario.node[21].veinsmobility speed ETV
vector 150 StopScenario.node[22].veinsmobility speed ETV
vector 151 StopScenario.node[23].veinsmobility speed ETV
vector 152 StopScenario.node[24].veinsmobility speed ETV
vector 153 StopScenario.node[25].veinsmobility speed ETV
vector 154 StopScenario.node[26].veinsmobility speed ETV
vector 155 StopScenario.node[27].veinsmobility speed ETV
vector 156 StopScenario.node[28].veinsmobility speed ETV
vector 157 StopScenario.node[29].veinsmobility speed ETV
vector 158 StopScenario.node[30].veinsmobility speed ETV
vector 159 StopScenario.node[31].veinsmobility speed ETV
vector 160 StopScenario.node[32].veinsmobility speed ETV
vector 161 StopScenario.node[33].veinsmobility speed ETV
vector 162 StopScenario.node[34].veinsmobility speed ETV
vector 163 StopScenario.node[35].veinsmobility speed ETV
vector 164 StopScenario.node[36].veinsmobility speed ETV
vector 165 StopScenario.node[37].veinsmobility speed ETV
vector 166 StopScenario.node[38].veinsmobility speed ETV
vector 167 StopScenario.node[39].veinsmobility speed ETV
vector 168 StopScenario.node[40].veinsmobility speed ETV
vector 169 StopScenario.node[41].veinsmobility speed ETV
vector 170 StopScenario.node[42].veinsmobility speed ETV
vector 171 StopScenario.node[43].veinsmobility speed ETV
vector 172 StopScenario.node[44].veinsmobility speed ETV
vector 173 StopScenario.node[45].veinsmobility speed ETV
vector 174 StopScenario.node[46].veinsmobility speed ETV
vector 175 StopScenario.node[47].veinsmobility speed ETV
vector 176 StopScenario.node[48].veinsmobility speed ETV
vector 177 StopScenario.node[49].veinsmobility speed ETV
vector 178 StopScenario.node[50].veinsmobility speed ETV
vector 179 StopScenario.node[51].veinsmobility speed ETV
vector 180 StopScenario.node[52].veinsmobility speed ETV
vector 181 StopScenario.node[53].veinsmobility speed ETV
vector 182 StopScenario.node[54].veinsmobility speed ETV
vector 183 StopScenario.node[55].veinsmobility speed ETV
vector 184 StopScenario.node[56].veinsmobility speed ETV
vector 185 StopScenario.node[57].veinsmobility speed ETV
vector 186 StopScenario.node[58].veinsmobility speed ETV
vector 187 StopScenario.node[59].veinsmobility speed ETV
vector 188 StopScenario.node[60].veinsmobility speed ETV
vector 189 StopScenario.node[61].veinsmobility speed ETV
vector 190 StopScenario.node[62].veinsmobility speed ETV
vector 191 StopScenario.node[63].veinsmobility speed ETV
0	15046 22 4 4 2 2 1 25.844875806295 25.844875806295 25.844875806295 667.9576054428
1	15068 12 4 4 2 2 1 17.25 17.25 17.25 297.5625
2	15080 22 4 4 2 2 1 163.51229496515 163.51229496515 163.51229496515 26736.270604772
3	15102 12 4 4 2 2 1 20.35 20.35 20.35 414.1225
4	15114 22 4 4 2 2 1 178.94047296491 178.94047296491 178.94047296491 32019.692864906
5	15136 12 4 4 2 2 1 17.25 17.25 17.25 297.5625
6	15148 21 4 4 2 2 1 195.0670870925 195.0670870925 195.0670870925 38051.168466752
7	15169 12 4 4 2 2 1 17.25 17.25 17.25 297.5625
8	15181 22 4 4 2 2 1 209.18634432203 209.18634432203 209.18634432203 43758.926650815
9	15203 12 4 4 2 2 1 20.35 20.35 20.35 414.1225
10	15215 23 4 4 2 2 1 224.58350975991 224.58350975991 224.58350975991 50437.752856079
11	15238 13 4 4 2 2 1 17.25 17.25 17.25 297.5625
12	15251 23 4 4 2 2 1 240.85426998438 240.85426998438 240.85426998438 58010.779369711
13	15274 13 4 4 2 2 1 20.35 20.35 20.35 414.1225
14	15287 22 4 4 2 2 1 256.5428549275 256.5428549275 256.5428549275 65814.236414354
15	15309 13 4 4 2 2 1 17.25 17.25 17.25 297.5625
16	15322 23 4 4 2 2 1 272.05614441274 272.05614441274 272.05614441274 74014.545712728
17	15345 13 4 4 2 2 1 20.35 20.35 20.35 414.1225
18	15358 23 4 4 2 2 1 287.46916686719 287.46916686719 287.46916686719 82638.521899317
19	15381 13 4 4 2 2 1 17.25 17.25 17.25 297.5625
20	15394 23 4 4 2 2 1 303.33931435801 303.33931435801 303.33931435801 92014.739635185
21	15417 13 4 4 2 2 1 20.35 20.35 20.35 414.1225
22	15430 23 4 4 2 2 1 38.809719899485 38.809719899485 38.809719899485 1506.1943586765
23	15453 13 4 4 2 2 1 20.35 20.35 20.35 414.1225
24	15466 23 4 4 2 2 1 318.98224580812 318.98224580812 318.98224580812 101749.67314079
25	15489 13 4 4 2 2 1 17.25 17.25 17.25 297.5625
26	15502 23 4 4 2 2 1 334.91686815594 334.91686815594 334.91686815594 112169.30857538
27	15525 13 4 4 2 2 1 17.25 17.25 17.25 297.5625
28	15538 23 4 4 2 2 1 349.81507177791 349.81507177791 349.81507177791 122370.58444299
29	15561 13 4 4 2 2 1 20.35 20.35 20.35 414.1225
30	15574 23 4 4 2 2 1 365.17956367583 365.17956367583 365.17956367583 133356.11372647
31	15597 13 4 4 2 2 1 17.25 17.25 17.25 297.5625
32	15610 23 4 4 2 2 1 381.24103801587 381.24103801587 381.24103801587 145344.72906742
33	15633 13 4 4 2 2 1 17.25 17.25 17.25 297.5625
34	15646 23 4 4 2 2 1 396.30204247547 396.30204247547 396.30204247547 157055.30887023
35	15669 13 4 4 2 2 1 20.35 20.35 20.35 414.1225
36	15682 22 4 4 2 2 1 411.7752224058 411.7752224058 411.7752224058 169558.83378734
37	15704 13 4 4 2 2 1 17.25 17.25 17.25 297.5625
38	15717 23 4 4 2 2 1 427.70548164369 427.70548164369 427.70548164369 182931.97902806
39	15740 13 4 4 2 2 1 20.35 20.35 20.35 414.1225
40	15753 23 4 4 2 2 1 443.55175425441 443.55175425441 443.55175425441 196738.15870216
41	15776 13 4 4 2 2 1 20.35 20.35 20.35 414.1225
42	15789 22 4 4 2 2 1 458.7875699186 458.7875699186 458.7875699186 210486.03431182
43	15811 13 4 4 2 2 1 17.25 17.25 17.25 297.5625
44	15824 23 4 4 2 2 1 54.882137151026 54.882137151026 54.882137151026 3012.048978264
45	15847 13 4 4 2 2 1 17.25 17.25 17.25 297.5625
46	15860 23 4 4 2 2 1 474.37572596589 474.37572596589 474.37572596589 225032.32938567
47	15883 13 4 4 2 2 1 20.35 20.35 20.35 414.1225
48	15896 23 4 4 2 2 1 489.81735299701 489.81735299701 489.81735299701 239921.03929699
49	15919 13 4 4 2 2 1 17.25 17.25 17.25 297.5625
50	15932 23 4 4 2 2 1 505.31296343482 505.31296343482 505.31296343482 255341.19101528
51	15955 13 4 4 2 2 1 20.35 20.35 20.35 414.1225
52	15968 23 4 4 2 2 1 520.88692732994 520.88692732994 520.88692732994 271323.19106323
53	15991 13 4 4 2 2 1 17.25 17.25 17.25 297.5625
54	16004 23 4 4 2 2 1 536.52635172539 536.52635172539 536.52635172539 287860.52609575
55	16027 13 4 4 2 2 1 20.35 20.35 20.35 414.1225
56	16040 23 4 4 2 2 1 551.86817500519 551.86817500519 551.86817500519 304558.48258355
57	16063 13 4 4 2 2 1 17.25 17.25 17.25 297.5625
58	16076 23 4 4 2 2 1 567.66120684927 567.66120684927 567.66120684927 322239.24576157
59	16099 13 4 4 2 2 1 17.25 17.25 17.25 297.5625
60	16112 23 4 4 2 2 1 583.06100285115 583.06100285115 583.06100285115 339960.13304578
61	16135 13 4 4 2 2 1 20.35 20.35 20.35 414.1225
62	16148 23 4 4 2 2 1 598.43689805766 598.43689805766 598.43689805766 358126.72095688
63	16171 13 4 4 2 2 1 17.25 17.25 17.25 297.5625
64	16184 23 4 4 2 2 1 614.19163899893 614.19163899893 614.19163899893 377231.3694162
65	16207 13 4 4 2 2 1 17.25 17.25 17.25 297.5625
66	16220 23 4 4 2 2 1 69.951343359047 69.951343359047 69.951343359047 4893.1904377352
67	16243 13 4 4 2 2 1 20.35 20.35 20.35 414.1225
68	16256 23 4 4 2 2 1 629.38343719161 629.38343719161 629.38343719161 396123.51101112
69	16279 13 4 4 2 2 1 20.35 20.35 20.35 414.1225
70	16292 23 4 4 2 2 1 644.97900653072 644.97900653072 644.97900653072 415997.91886535
71	16315 13 4 4 2 2 1 17.25 17.25 17.25 297.5625
72	16328 23 4 4 2 2 1 660.76781660067 660.76781660067 660.76781660067 436614.10745521
73	16351 13 4 4 2 2 1 17.25 17.25 17.25 297.5625
74	16364 23 4 4 2 2 1 676.21397480235 676.21397480235 676.21397480235 457265.33971799
75	16387 13 4 4 2 2 1 20.35 20.35 20.35 414.1225
76	16400 23 4 4 2 2 1 691.66848135822 691.66848135822 691.66848135822 478405.28810438
77	16423 13 4 4 2 2 1 17.25 17.25 17.25 297.5625
78	16436 23 4 4 2 2 1 707.14680387795 707.14680387795 707.14680387795 500056.6022348
79	16459 13 4 4 2 2 1 20.35 20.35 20.35 414.1225
80	16472 22 4 4 2 2 1 722.5995379831 722.5995379831 722.5995379831 522150.09229339
81	16494 13 4 4 2 2 1 17.25 17.25 17.25 297.5625
82	16507 23 4 4 2 2 1 738.27470378664 738.27470378664 738.27470378664 545049.53825125
83	16530 13 4 4 2 2 1 20.35 20.35 20.35 414.1225
84	16543 23 4 4 2 2 1 753.88407535408 753.88407535408 753.88407535408 568341.19907247
85	16566 13 4 4 2 2 1 17.25 17.25 17.25 297.5625
86	16579 23 4 4 2 2 1 769.44754353693 769.44754353693 769.44754353693 592049.52225502
87	16602 13 4 4 2 2 1 20.35 20.35 20.35 414.1225
88	16615 23 4 4 2 2 1 85.377551324954 85.377551324954 85.377551324954 7289.3262702452
89	16638 13 4 4 2 2 1 17.25 17.25 17.25 297.5625
90	16651 23 4 4 2 2 1 784.89616806758 784.89616806758 784.89616806758 616061.99464717
91	16674 13 4 4 2 2 1 17.25 17.25 17.25 297.5625
92	16687 23 4 4 2 2 1 800.35825443222 800.35825443222 800.35825443222 640573.33543778
93	16710 13 4 4 2 2 1 20.35 20.35 20.35 414.1225
94	16723 23 4 4 2 2 1 815.88052678695 815.88052678695 815.88052678695 665661.03399015
95	16746 13 4 4 2 2 1 17.25 17.25 17.25 297.5625
96	16759 23 4 4 2 2 1 831.36895250124 831.36895250124 831.36895250124 691174.33518302
97	16782 13 4 4 2 2 1 20.35 20.35 20.35 414.1225
98	16795 23 4 4 2 2 1 846.84840622535 846.84840622535 846.84840622535 717152.22312642
99	16818 13 4 4 2 2 1 17.25 17.25 17.25 297.5625
100	16831 24 4 4 2 2 1 862.38562426845 862.38562426845 862.38562426845 743708.96494488
101	16855 14 4 4 2 2 1 20.35 20.35 20.35 414.1225
102	16869 24 4 4 2 2 1 877.83209009851 877.83209009851 877.83209009851 770589.17840672
103	16893 14 4 4 2 2 1 17.25 17.25 17.25 297.5625
104	16907 23 4 4 2 2 1 893.3635759912 893.3635759912 893.3635759912 798098.47890778
105	16930 14 4 4 2 2 1 20.35 20.35 20.35 414.1225
106	16944 24 4 4 2 2 1 908.85210525436 908.85210525436 908.85210525436 826012.14922528
107	16968 14 4 4 2 2 1 17.25 17.25 17.25 297.5625
108	16982 24 4 4 2 2 1 924.28191761649 924.28191761649 924.28191761649 854297.06323282
109	17006 14 4 4 2 2 1 20.35 20.35 20.35 414.1225
110	17020 24 4 4 2 2 1 100.79911656378 100.79911656378 100.79911656378 10160.461900038
111	17044 14 4 4 2 2 1 20.35 20.35 20.35 414.1225
112	17058 24 4 4 2 2 1 939.89615445698 939.89615445698 939.89615445698 883404.78116302
113	17082 14 4 4 2 2 1 17.25 17.25 17.25 297.5625
114	17096 24 4 4 2 2 1 955.47378501171 955.47378501171 955.47378501171 912930.15384461
115	17120 14 4 4 2 2 1 20.35 20.35 20.35 414.1225
116	17134 24 4 4 2 2 1 970.96483901576 970.96483901576 970.96483901576 942772.71860489
117	17158 14 4 4 2 2 1 17.25 17.25 17.25 297.5625
118	17172 24 4 4 2 2 1 986.46122184371 986.46122184371 986.46122184371 973105.74220138
119	17196 14 4 4 2 2 1 20.35 20.35 20.35 414.1225
120	17210 24 4 4 2 2 1 1001.9260547918 1001.9260547918 1001.9260547918 1003855.8192706
121	17234 14 4 4 2 2 1 17.25 17.25 17.25 297.5625
122	17248 24 4 4 2 2 1 116.48630544964 116.48630544964 116.48630544964 13569.059357308
123	17272 14 4 4 2 2 1 17.25 17.25 17.25 297.5625
124	17286 24 4 4 2 2 1 132.28569682519 132.28569682519 132.28569682519 17499.505584526
125	17310 14 4 4 2 2 1 20.35 20.35 20.35 414.1225
126	17324 24 4 4 2 2 1 147.83795591515 147.83795591515 147.83795591515 21856.061209169
127	17348 14 4 4 2 2 1 17.25 17.25 17.25 297.5625
128	17362 24 4 4 2 2 1 4.9762717386071 4.9762717386071 4.9762717386071 24.76328041646
129	17386 24 4 4 2 2 1 10.219871215777 10.219871215777 10.219871215777 104.44576766707
130	17410 23 4 4 2 2 1 10.38407030279 10.38407030279 10.38407030279 107.82891605328
131	17433 24 4 4 2 2 1 9.5738318432438 9.5738318432438 9.5738318432438 91.658256162709
132	17457 24 4 4 2 2 1 10.807275840938 10.807275840938 10.807275840938 116.79721110213
133	17481 24 4 4 2 2 1 10.890818709173 10.890818709173 10.890818709173 118.60993215608
134	17505 24 4 4 2 2 1 10.234047648603 10.234047648603 10.234047648603 104.73573127388
135	17529 24 4 4 2 2 1 10.094258979159 10.094258979159 10.094258979159 101.89406433834
136	17553 24 4 4 2 2 1 10.292392036819 10.292392036819 10.292392036819 105.93333383957
137	17577 24 4 4 2 2 1 10.246798187108 10.246798187108 10.246798187108 104.99687308732
138	17601 24 4 4 2 2 1 9.9236041644553 9.9236041644553 9.9236041644553 98.477919612794
139	17625 24 4 4 2 2 1 10.706756367343 10.706756367343 10.706756367343 114.63463190963
140	17649 24 4 4 2 2 1 9.8705930155071 9.8705930155071 9.8705930155071 97.428606477777
141	17673 24 4 4 2 2 1 9.1751276528708 9.1751276528708 9.1751276528708 84.182967446475
142	17697 23 4 4 2 2 1 9.986373012286 9.986373012286 9.986373012286 99.727645940515
143	17720 24 4 4 2 2 1 10.034661180141 10.034661180141 10.034661180141 100.69442500024
144	17744 24 4 4 2 2 1 9.3298677907282 9.3298677907282 9.3298677907282 87.046432992468
145	17768 24 4 4 2 2 1 9.8946767302181 9.8946767302181 9.8946767302181 97.904627595519
146	17792 24 4 4 2 2 1 10.047528641031 10.047528641031 10.047528641031 100.95283179234
147	17816 24 4 4 2 2 1 9.5743508550586 9.5743508550586 9.5743508550586 91.668194295761
148	17840 24 4 4 2 2 1 8.9915768202196 8.9915768202196 8.9915768202196 80.848453713911
149	17864 24 4 4 2 2 1 9.4346411418463 9.4346411418463 9.4346411418463 89.012453475419
150	17888 24 4 4 2 2 1 10.259230704525 10.259230704525 10.259230704525 105.25181464866
151	17912 24 4 4 2 2 1 9.3271780610811 9.3271780610811 9.3271780610811 86.996250583112
152	17936 24 4 4 2 2 1 9.3468272739523 9.3468272739523 9.3468272739523 87.363180089099
153	17960 24 4 4 2 2 1 9.3397070686762 9.3397070686762 9.3397070686762 87.23012812868
154	17984 24 4 4 2 2 1 9.2929924783504 9.2929924783504 9.2929924783504 86.359709202677
155	18008 24 4 4 2 2 1 9.2406624485992 9.2406624485992 9.2406624485992 85.389842488952
156	18032 24 4 4 2 2 1 9.2832246371751 9.2832246371751 9.2832246371751 86.178259664254
157	18056 24 4 4 2 2 1 8.7505255642109 8.7505255642109 8.7505255642109 76.571697649909
158	18080 24 4 4 2 2 1 8.9701321695515 8.9701321695515 8.9701321695515 80.463271139223
159	18104 24 4 4 2 2 1 9.2498075042972 9.2498075042972 9.2498075042972 85.558938866553
160	18128 24 4 4 2 2 1 8.7246919777846 8.7246919777846 8.7246919777846 76.120250107218
161	18152 24 4 4 2 2 1 10.534009917036 10.534009917036 10.534009917036 110.96536493222
162	18176 24 4 4 2 2 1 9.4331581412323 9.4331581412323 9.4331581412323 88.984472517498
163	18200 24 4 4 2 2 1 9.3113548223315 9.3113548223315 9.3113548223315 86.701328627357
164	18224 24 4 4 2 2 1 8.7560174348471 8.7560174348471 8.7560174348471 76.667841319346
165	18248 24 4 4 2 2 1 8.8760937126405 8.8760937126405 8.8760937126405 78.785039595577
166	18272 24 4 4 2 2 1 8.9277612536438 8.9277612536438 8.9277612536438 79.704921002064
167	18296 24 4 4 2 2 1 8.9554274869549 8.9554274869549 8.9554274869549 80.199681474107
168	18320 24 4 4 2 2 1 9.0371841648473 9.0371841648473 9.0371841648473 81.670697629367
169	18344 24 4 4 2 2 1 8.7661806309281 8.7661806309281 8.7661806309281 76.845922854059
170	18368 23 4 4 2 2 1 8.484191548282 8.484191548282 8.484191548282 71.981506227939
171	18391 24 4 4 2 2 1 8.2688883598518 8.2688883598518 8.2688883598518 68.374514707693
172	18415 24 4 4 2 2 1 10.624007397221 10.624007397221 10.624007397221 112.8695331762
173	18439 23 4 4 2 2 1 8.373602865695 8.373602865695 8.373602865695 70.117224952375
174	18462 24 4 4 2 2 1 8.4968724545334 8.4968724545334 8.4968724545334 72.196841508608
175	18486 24 4 4 2 2 1 8.3856634453436 8.3856634453436 8.3856634453436 70.319351418572
176	18510 24 4 4 2 2 1 8.3207151381775 8.3207151381775 8.3207151381775 69.234300410696
177	18534 24 4 4 2 2 1 8.4072433228164 8.4072433228164 8.4072433228164 70.68174028904
178	18558 24 4 4 2 2 1 8.2759136759601 8.2759136759601 8.2759136759601 68.490747171944
179	18582 24 4 4 2 2 1 8.4148331288758 8.4148331288758 8.4148331288758 70.809416586826
180	18606 24 4 4 2 2 1 8.1919642755882 8.1919642755882 8.1919642755882 67.108278692513
181	18630 24 4 4 2 2 1 8.1963291909053 8.1963291909053 8.1963291909053 67.179812205686
182	18654 24 4 4 2 2 1 8.3845988227937 8.3845988227937 8.3845988227937 70.301497419193
183	18678 24 4 4 2 2 1 10.876210211486 10.876210211486 10.876210211486 118.29194856443
184	18702 24 4 4 2 2 1 8.3669935028122 8.3669935028122 8.3669935028122 70.006580276102
185	18726 24 4 4 2 2 1 8.0218084940373 8.0218084940373 8.0218084940373 64.349411515009
186	18750 23 4 4 2 2 1 8.033525454336 8.033525454336 8.033525454336 64.537531225464
187	18773 23 4 4 2 2 1 7.955493645133 7.955493645133 7.955493645133 63.289879137752
188	18796 24 4 4 2 2 1 8.0470671668426 8.0470671668426 8.0470671668426 64.755289987677
189	18820 24 4 4 2 2 1 10.607501118513 10.607501118513 10.607501118513 112.51907997925
190	18844 24 4 4 2 2 1 10.489101027895 10.489101027895 10.489101027895 110.02124037339
191	18868 24 4 4 2 2 1 10.426917911285 10.426917911285 10.426917911285 108.72061712868
vector 192 StopScenario.node[1].veinsmobility acceleration ETV
vector 193 StopScenario.node[1].veinsmobility co2emission ETV
vector 194 StopScenario.node[2].veinsmobility acceleration ETV
vector 195 StopScenario.node[2].veinsmobility co2emission ETV
vector 196 StopScenario.node[3].veinsmobility acceleration ETV
vector 197 StopScenario.node[3].veinsmobility co2emission ETV
vector 198 StopScenario.node[4].veinsmobility acceleration ETV
vector 199 StopScenario.node[4].veinsmobility co2emission ETV
vector 200 StopScenario.node[5].veinsmobility acceleration ETV
vector 201 StopScenario.node[5].veinsmobility co2emission ETV
vector 202 StopScenario.node[6].veinsmobility acceleration ETV
vector 203 StopScenario.node[6].veinsmobility co2emission ETV
vector 204 StopScenario.node[7].veinsmobility acceleration ETV
vector 205 StopScenario.node[7].veinsmobility co2emission ETV
vector 206 StopScenario.node[8].veinsmobility acceleration ETV
vector 207 StopScenario.node[8].veinsmobility co2emission ETV
vector 208 StopScenario.node[9].veinsmobility acceleration ETV
vector 209 StopScenario.node[9].veinsmobility co2emission ETV
vector 210 StopScenario.node[10].veinsmobility acceleration ETV
vector 211 StopScenario.node[10].veinsmobility co2emission ETV
vector 212 StopScenario.node[11].veinsmobility acceleration ETV
vector 213 StopScenario.node[11].veinsmobility co2emission ETV
vector 214 StopScenario.node[12].veinsmobility acceleration ETV
vector 215 StopScenario.node[12].veinsmobility co2emission ETV
vector 216 StopScenario.node[13].veinsmobility acceleration ETV
vector 217 StopScenario.node[13].veinsmobility co2emission ETV
vector 218 StopScenario.node[14].veinsmobility acceleration ETV
vector 219 StopScenario.node[14].veinsmobility co2emission ETV
vector 220 StopScenario.node[15].veinsmobility acceleration ETV
vector 221 StopScenario.node[15].veinsmobility co2emission ETV
vector 222 StopScenario.node[16].veinsmobility acceleration ETV
vector 223 StopScenario.node[16].veinsmobility co2emission ETV
vector 224 StopScenario.node[17].veinsmobility acceleration ETV
vector 225 StopScenario.node[17].veinsmobility co2emission ETV
vector 226 StopScenario.node[18].veinsmobility acceleration ETV
vector 227 StopScenario.node[18].veinsmobility co2emission ETV
vector 228 StopScenario.node[19].veinsmobility acceleration ETV
vector 229 StopScenario.node[19].veinsmobility co2emission ETV
vector 230 StopScenario.node[20].veinsmobility acceleration ETV
vector 231 StopScenario.node[20].veinsmobility co2emission ETV
vector 232 StopScenario.node[21].veinsmobility acceleration ETV
vector 233 StopScenario.node[21].veinsmobility co2emission ETV
vector 234 StopScenario.node[22].veinsmobility acceleration ETV
vector 235 StopScenario.node[22].veinsmobility co2emission ETV
vector 236 StopScenario.node[23].veinsmobility acceleration ETV
vector 237 StopScenario.node[23].veinsmobility co2emission ETV
vector 238 StopScenario.node[24].veinsmobility acceleration ETV
vector 239 StopScenario.node[24].veinsmobility co2emission ETV
vector 240 StopScenario.node[25].veinsmobility acceleration ETV
vector 241 StopScenario.node[25].veinsmobility co2emission ETV
vector 242 StopScenario.node[26].veinsmobility acceleration ETV
vector 243 StopScenario.node[26].veinsmobility co2emission ETV
vector 244 StopScenario.node[27].veinsmobility acceleration ETV
vector 245 StopScenario.node[27].veinsmobility co2emission ETV
vector 246 StopScenario.node[28].veinsmobility acceleration ETV
vector 247 StopScenario.node[28].veinsmobility co2emission ETV
vector 248 StopScenario.node[29].veinsmobility acceleration ETV
vector 249 StopScenario.node[29].veinsmobility co2emission ETV
vector 250 StopScenario.node[30].veinsmobility acceleration ETV
vector 251 StopScenario.node[30].veinsmobility co2emission ETV
vector 252 StopScenario.node[31].veinsmobility acceleration ETV
vector 253 StopScenario.node[31].veinsmobility co2emission ETV
vector 254 StopScenario.node[32].veinsmobility acceleration ETV
vector 255 StopScenario.node[32].veinsmobility co2emission ETV
vector 256 StopScenario.node[33].veinsmobility acceleration ETV
vector 257 StopScenario.node[33].veinsmobility co2emission ETV
vector 258 StopScenario.node[34].veinsmobility acceleration ETV
vector 259 StopScenario.node[34].veinsmobility co2emission ETV
vector 260 StopScenario.node[35].veinsmobility acceleration ETV
vector 261 StopScenario.node[35].veinsmobility co2emission ETV
vector 262 StopScenario.node[36].veinsmobility acceleration ETV
vector 263 StopScenario.node[36].veinsmobility co2emission ETV
vector 264 StopScenario.node[37].veinsmobility acceleration ETV
vector 265 StopScenario.node[37].veinsmobility co2emission ETV
vector 266 StopScenario.node[38].veinsmobility acceleration ETV
vector 267 StopScenario.node[38].veinsmobility co2emission ETV
vector 268 StopScenario.node[39].veinsmobility acceleration ETV
vector 269 StopScenario.node[39].veinsmobility co2emission ETV
vector 270 StopScenario.node[40].veinsmobility acceleration ETV
vector 271 StopScenario.node[40].veinsmobility co2emission ETV
vector 272 StopScenario.node[41].veinsmobility acceleration ETV
vector 273 StopScenario.node[41].veinsmobility co2emission ETV
vector 274 StopScenario.node[42].veinsmobility acceleration ETV
vector 275 StopScenario.node[42].veinsmobility co2emission ETV
vector 276 StopScenario.node[43].veinsmobility acceleration ETV
vector 277 StopScenario.node[43].veinsmobility co2emission ETV
vector 278 StopScenario.node[44].veinsmobility acceleration ETV
vector 279 StopScenario.node[44].veinsmobility co2emission ETV
vector 280 StopScenario.node[45].veinsmobility acceleration ETV
vector 281 StopScenario.node[45].veinsmobility co2emission ETV
vector 282 StopScenario.node[46].veinsmobility acceleration ETV
vector 283 StopScenario.node[46].veinsmobility co2emission ETV
vector 284 StopScenario.node[47].veinsmobility acceleration ETV
vector 285 StopScenario.node[47].veinsmobility co2emission ETV
vector 286 StopScenario.node[48].veinsmobility acceleration ETV
vector 287 StopScenario.node[48].veinsmobility co2emission ETV
vector 288 StopScenario.node[49].veinsmobility acceleration ETV
vector 289 StopScenario.node[49].veinsmobility co2emission ETV
vector 290 StopScenario.node[50].veinsmobility acceleration ETV
vector 291 StopScenario.node[50].veinsmobility co2emission ETV
vector 292 StopScenario.node[51].veinsmobility acceleration ETV
vector 293 StopScenario.node[51].veinsmobility co2emission ETV
vector 294 StopScenario.node[52].veinsmobility acceleration ETV
vector 295 StopScenario.node[52].veinsmobility co2emission ETV
vector 296 StopScenario.node[53].veinsmobility acceleration ETV
vector 297 StopScenario.node[53].veinsmobility co2emission ETV
vector 298 StopScenario.node[54].veinsmobility acceleration ETV
vector 299 StopScenario.node[54].veinsmobility co2emission ETV
vector 300 StopScenario.node[55].veinsmobility acceleration ETV
vector 301 StopScenario.node[55].veinsmobility co2emission ETV
vector 302 StopScenario.node[56].veinsmobility acceleration ETV
vector 303 StopScenario.node[56].veinsmobility co2emission ETV
vector 304 StopScenario.node[57].veinsmobility acceleration ETV
vector 305 StopScenario.node[57].veinsmobility co2emission ETV
vector 306 StopScenario.node[58].veinsmobility acceleration ETV
vector 307 StopScenario.node[58].veinsmobility co2emission ETV
vector 308 StopScenario.node[59].veinsmobility acceleration ETV
vector 309 StopScenario.node[59].veinsmobility co2emission ETV
vector 310 StopScenario.node[60].veinsmobility acceleration ETV
vector 311 StopScenario.node[60].veinsmobility co2emission ETV
vector 312 StopScenario.node[61].veinsmobility acceleration ETV
vector 313 StopScenario.node[61].veinsmobility co2emission ETV
vector 314 StopScenario.node[62].veinsmobility acceleration ETV
vector 315 StopScenario.node[62].veinsmobility co2emission ETV
vector 316 StopScenario.node[63].veinsmobility acceleration ETV
vector 317 StopScenario.node[63].veinsmobility co2emission ETV
2	26875 22 5 5 3 3 1 152.38022101375 152.38022101375 152.38022101375 23219.731756199
3	26897 12 5 5 3 3 1 20.35 20.35 20.35 414.1225
4	26909 22 5 5 3 3 1 167.50319637557 167.50319637557 167.50319637557 28057.320796032
5	26931 12 5 5 3 3 1 17.25 17.25 17.25 297.5625
6	26943 22 5 5 3 3 1 184.55659960868 184.55659960868 184.55659960868 34061.138459119
7	26965 12 5 5 3 3 1 17.25 17.25 17.25 297.5625
8	26977 21 5 5 3 3 1 197.2437489914 197.2437489914 197.2437489914 38905.096516182
9	26998 12 5 5 3 3 1 20.35 20.35 20.35 414.1225
10	27010 23 5 5 3 3 1 212.57649513613 212.57649513613 212.57649513613 45188.766284359
11	27033 13 5 5 3 3 1 17.25 17.25 17.25 297.5625
12	27046 23 5 5 3 3 1 229.48682061189 229.48682061189 229.48682061189 52664.200834553
13	27069 13 5 5 3 3 1 20.35 20.35 20.35 414.1225
14	27082 23 5 5 3 3 1 245.33820934008 245.33820934008 245.33820934008 60190.836962199
15	27105 13 5 5 3 3 1 17.25 17.25 17.25 297.5625
16	27118 22 5 5 3 3 1 260.7381469077 260.7381469077 260.7381469077 67984.381252859
17	27140 13 5 5 3 3 1 20.35 20.35 20.35 414.1225
18	27153 23 5 5 3 3 1 276.18327443945 276.18327443945 276.18327443945 76277.201080096
19	27176 13 5 5 3 3 1 17.25 17.25 17.25 297.5625
20	27189 23 5 5 3 3 1 292.22925420224 292.22925420224 292.22925420224 85397.937011597
21	27212 13 5 5 3 3 1 20.35 20.35 20.35 414.1225
22	27225 22 5 5 3 3 1 27.17049364073 27.17049364073 27.17049364073 738.23572468092
23	27247 13 5 5 3 3 1 20.35 20.35 20.35 414.1225
24	27260 23 5 5 3 3 1 308.10253220883 308.10253220883 308.10253220883 94927.170353496
25	27283 13 5 5 3 3 1 17.25 17.25 17.25 297.5625
26	27296 23 5 5 3 3 1 324.87542193535 324.87542193535 324.87542193535 105544.03977767
27	27319 13 5 5 3 3 1 17.25 17.25 17.25 297.5625
28	27332 23 5 5 3 3 1 338.79176711976 338.79176711976 338.79176711976 114779.86146813
29	27355 13 5 5 3 3 1 20.35 20.35 20.35 414.1225
30	27368 23 5 5 3 3 1 354.13134363014 354.13134363014 354.13134363014 125409.00854129
31	27391 13 5 5 3 3 1 17.25 17.25 17.25 297.5625
32	27404 23 5 5 3 3 1 371.02454728465 371.02454728465 371.02454728465 137659.21468778
33	27427 13 5 5 3 3 1 17.25 17.25 17.25 297.5625
34	27440 23 5 5 3 3 1 385.34725930368 385.34725930368 385.34725930368 148492.51025285
35	27463 13 5 5 3 3 1 20.35 20.35 20.35 414.1225
36	27476 23 5 5 3 3 1 400.73312264364 400.73312264364 400.73312264364 160587.03558372
37	27499 13 5 5 3 3 1 17.25 17.25 17.25 297.5625
38	27512 22 5 5 3 3 1 417.1073282092 417.1073282092 417.1073282092 173978.52324582
39	27534 13 5 5 3 3 1 20.35 20.35 20.35 414.1225
40	27547 23 5 5 3 3 1 433.77806228543 433.77806228543 433.77806228543 188163.4073201
41	27570 13 5 5 3 3 1 20.35 20.35 20.35 414.1225
42	27583 23 5 5 3 3 1 448.42497271988 448.42497271988 448.42497271988 201084.95615883
43	27606 13 5 5 3 3 1 17.25 17.25 17.25 297.5625
44	27619 23 5 5 3 3 1 43.586217171598 43.586217171598 43.586217171598 1899.7583273297
45	27642 13 5 5 3 3 1 17.25 17.25 17.25 297.5625
46	27655 23 5 5 3 3 1 464.05606504617 464.05606504617 464.05606504617 215348.03150613
47	27678 13 5 5 3 3 1 20.35 20.35 20.35 414.1225
48	27691 22 5 5 3 3 1 479.3522733372 479.3522733372 479.3522733372 229778.60195354
49	27713 13 5 5 3 3 1 17.25 17.25 17.25 297.5625
50	27726 23 5 5 3 3 1 494.87180138838 494.87180138838 494.87180138838 244898.09980938
51	27749 13 5 5 3 3 1 20.35 20.35 20.35 414.1225
52	27762 23 5 5 3 3 1 510.53228702694 510.53228702694 510.53228702694 260643.21609696
53	27785 13 5 5 3 3 1 17.25 17.25 17.25 297.5625
54	27798 23 5 5 3 3 1 526.23978265243 526.23978265243 526.23978265243 276928.30884607
55	27821 13 5 5 3 3 1 20.35 20.35 20.35 414.1225
56	27834 23 5 5 3 3 1 541.50394793941 541.50394793941 541.50394793941 293226.52563397
57	27857 13 5 5 3 3 1 17.25 17.25 17.25 297.5625
58	27870 23 5 5 3 3 1 558.04253937269 558.04253937269 558.04253937269 311411.47574952
59	27893 13 5 5 3 3 1 17.25 17.25 17.25 297.5625
60	27906 23 5 5 3 3 1 572.90918778292 572.90918778292 572.90918778292 328224.93744608
61	27929 13 5 5 3 3 1 20.35 20.35 20.35 414.1225
62	27942 23 5 5 3 3 1 588.02851416072 588.02851416072 588.02851416072 345777.53346606
63	27965 13 5 5 3 3 1 17.25 17.25 17.25 297.5625
64	27978 23 5 5 3 3 1 604.57952247193 604.57952247193 604.57952247193 365516.39899238
65	28001 13 5 5 3 3 1 17.25 17.25 17.25 297.5625
66	28014 23 5 5 3 3 1 58.419126417616 58.419126417616 58.419126417616 3412.7943313974
67	28037 13 5 5 3 3 1 20.35 20.35 20.35 414.1225
68	28050 23 5 5 3 3 1 618.75330122526 618.75330122526 618.75330122526 382855.64777716
69	28073 13 5 5 3 3 1 20.35 20.35 20.35 414.1225
70	28086 23 5 5 3 3 1 634.59970022244 634.59970022244 634.59970022244 402716.77952241
71	28109 13 5 5 3 3 1 17.25 17.25 17.25 297.5625
72	28122 23 5 5 3 3 1 651.13957390402 651.13957390402 651.13957390402 423982.7447039
73	28145 13 5 5 3 3 1 17.25 17.25 17.25 297.5625
74	28158 23 5 5 3 3 1 666.18433693594 666.18433693594 666.18433693594 443801.57077877
75	28181 13 5 5 3 3 1 20.35 20.35 20.35 414.1225
76	28194 23 5 5 3 3 1 681.69797112547 681.69797112547 681.69797112547 464712.12383658
77	28217 13 5 5 3 3 1 17.25 17.25 17.25 297.5625
78	28230 22 5 5 3 3 1 697.1767944962 697.1767944962 697.1767944962 486055.482784
79	28252 13 5 5 3 3 1 20.35 20.35 20.35 414.1225
80	28265 23 5 5 3 3 1 712.52782525424 712.52782525424 712.52782525424 507695.90176154
81	28288 13 5 5 3 3 1 17.25 17.25 17.25 297.5625
82	28301 23 5 5 3 3 1 728.41406868487 728.41406868487 728.41406868487 530587.05545804
83	28324 13 5 5 3 3 1 20.35 20.35 20.35 414.1225
84	28337 23 5 5 3 3 1 744.42810247629 744.42810247629 744.42810247629 554173.19975645
85	28360 13 5 5 3 3 1 17.25 17.25 17.25 297.5625
86	28373 23 5 5 3 3 1 760.11711615422 760.11711615422 760.11711615422 577778.03027061
87	28396 13 5 5 3 3 1 20.35 20.35 20.35 414.1225
88	28409 23 5 5 3 3 1 73.741931381662 73.741931381662 73.741931381662 5437.8724438978
89	28432 13 5 5 3 3 1 17.25 17.25 17.25 297.5625
90	28445 23 5 5 3 3 1 775.49486688176 775.49486688176 775.49486688176 601392.28855996
91	28468 13 5 5 3 3 1 17.25 17.25 17.25 297.5625
92	28481 23 5 5 3 3 1 790.85582804514 790.85582804514 790.85582804514 625452.94075296
93	28504 13 5 5 3 3 1 20.35 20.35 20.35 414.1225
94	28517 23 5 5 3 3 1 806.45146773397 806.45146773397 806.45146773397 650363.96981028
95	28540 13 5 5 3 3 1 17.25 17.25 17.25 297.5625
96	28553 22 5 5 3 3 1 821.9651238987 821.9651238987 821.9651238987 675626.6649058
97	28575 13 5 5 3 3 1 20.35 20.35 20.35 414.1225
98	28588 23 5 5 3 3 1 837.47341751745 837.47341751745 837.47341751745 701361.72504836
99	28611 13 5 5 3 3 1 17.25 17.25 17.25 297.5625
100	28624 24 5 5 3 3 1 853.08766348477 853.08766348477 853.08766348477 727758.5615899
101	28648 14 5 5 3 3 1 20.35 20.35 20.35 414.1225
102	28662 24 5 5 3 3 1 868.28159380803 868.28159380803 868.28159380803 753912.92614582
103	28686 14 5 5 3 3 1 17.25 17.25 17.25 297.5625
104	28700 23 5 5 3 3 1 884.1490876577 884.1490876577 884.1490876577 781719.60920595
105	28723 14 5 5 3 3 1 20.35 20.35 20.35 414.1225
106	28737 24 5 5 3 3 1 899.46727313747 899.46727313747 899.46727313747 809041.37544536
107	28761 14 5 5 3 3 1 17.25 17.25 17.25 297.5625
108	28775 24 5 5 3 3 1 914.83976565279 914.83976565279 914.83976565279 836931.79681965
109	28799 14 5 5 3 3 1 20.35 20.35 20.35 414.1225
110	28813 24 5 5 3 3 1 88.734605705669 88.734605705669 88.734605705669 7873.8302497405
111	28837 14 5 5 3 3 1 20.35 20.35 20.35 414.1225
112	28851 24 5 5 3 3 1 930.36380174633 930.36380174633 930.36380174633 865576.80359989
113	28875 14 5 5 3 3 1 17.25 17.25 17.25 297.5625
114	28889 24 5 5 3 3 1 946.36348908479 946.36348908479 946.36348908479 895603.85347273
115	28913 14 5 5 3 3 1 20.35 20.35 20.35 414.1225
116	28927 23 5 5 3 3 1 961.9979197673 961.9979197673 961.9979197673 925439.99763662
117	28950 14 5 5 3 3 1 17.25 17.25 17.25 297.5625
118	28964 24 5 5 3 3 1 977.50494319186 977.50494319186 977.50494319186 955515.91396453
119	28988 14 5 5 3 3 1 20.35 20.35 20.35 414.1225
120	29002 24 5 5 3 3 1 992.81831816218 992.81831816218 992.81831816218 985688.21287837
121	29026 14 5 5 3 3 1 17.25 17.25 17.25 297.5625
122	29040 24 5 5 3 3 1 104.84723749404 104.84723749404 104.84723749404 10992.943210132
123	29064 14 5 5 3 3 1 17.25 17.25 17.25 297.5625
124	29078 24 5 5 3 3 1 120.64928552663 120.64928552663 120.64928552663 14556.250098085
125	29102 14 5 5 3 3 1 20.35 20.35 20.35 414.1225
126	29116 24 5 5 3 3 1 136.33756685075 136.33756685075 136.33756685075 18587.932134782
127	29140 14 5 5 3 3 1 17.25 17.25 17.25 297.5625
129	29154 23 5 5 3 3 1 12.03062424234 12.03062424234 12.03062424234 144.73591966038
130	29177 24 5 5 3 3 1 12.358480779439 12.358480779439 12.358480779439 152.73204717577
131	29201 24 5 5 3 3 1 11.228723003903 11.228723003903 11.228723003903 126.08422029838
132	29225 24 5 5 3 3 1 12.838560258935 12.838560258935 12.838560258935 164.8286295223
133	29249 24 5 5 3 3 1 12.896603759323 12.896603759323 12.896603759323 166.32238852499
134	29273 24 5 5 3 3 1 12.285601530884 12.285601530884 12.285601530884 150.93600497567
135	29297 24 5 5 3 3 1 12.105156145951 12.105156145951 12.105156145951 146.53480531786
136	29321 24 5 5 3 3 1 12.204285026355 12.204285026355 12.204285026355 148.94457300451
137	29345 24 5 5 3 3 1 12.247357769893 12.247357769893 12.247357769893 149.99777234375
138	29369 23 5 5 3 3 1 12.05500385468 12.05500385468 12.05500385468 145.32311793635
139	29392 24 5 5 3 3 1 12.479976343835 12.479976343835 12.479976343835 155.74980954269
140	29416 24 5 5 3 3 1 11.885022908167 11.885022908167 11.885022908167 141.25376952766
141	29440 24 5 5 3 3 1 10.867379971743 10.867379971743 10.867379971743 118.09994745025
142	29464 24 5 5 3 3 1 11.857528055933 11.857528055933 11.857528055933 140.60097159724
143	29488 24 5 5 3 3 1 11.926582871153 11.926582871153 11.926582871153 142.24337898249
144	29512 24 5 5 3 3 1 10.868577826357 10.868577826357 10.868577826357 118.12598396758
145	29536 24 5 5 3 3 1 11.859402410618 11.859402410618 11.859402410618 140.64542553698
146	29560 24 5 5 3 3 1 11.902033172786 11.902033172786 11.902033172786 141.65839364609
147	29584 24 5 5 3 3 1 11.532411127157 11.532411127157 11.532411127157 132.99650640578
148	29608 24 5 5 3 3 1 10.598993628496 10.598993628496 10.598993628496 112.3386659369
149	29632 23 5 5 3 3 1 11.25890558266 11.25890558266 11.25890558266 126.76295491925
150	29655 24 5 5 3 3 1 12.198541133802 12.198541133802 12.198541133802 148.80440579307
151	29679 24 5 5 3 3 1 11.086358686095 11.086358686095 11.086358686095 122.90734891675
152	29703 24 5 5 3 3 1 11.233572852271 11.233572852271 11.233572852271 126.19315902727
153	29727 24 5 5 3 3 1 11.336690938367 11.336690938367 11.336690938367 128.52056143204
154	29751 24 5 5 3 3 1 11.211705056091 11.211705056091 11.211705056091 125.70233026478
155	29775 24 5 5 3 3 1 11.124963305304 11.124963305304 11.124963305304 123.76480854435
156	29799 24 5 5 3 3 1 11.288270117202 11.288270117202 11.288270117202 127.42504223892
157	29823 24 5 5 3 3 1 10.369126285982 10.369126285982 10.369126285982 107.51877993463
158	29847 24 5 5 3 3 1 11.070814699042 11.070814699042 11.070814699042 122.56293810052
159	29871 24 5 5 3 3 1 11.361726535957 11.361726535957 11.361726535957 129.08882987788
160	29895 24 5 5 3 3 1 10.480034050802 10.480034050802 10.480034050802 109.83111370598
161	29919 24 5 5 3 3 1 12.355707735473 12.355707735473 12.355707735473 152.66351364443
162	29943 24 5 5 3 3 1 11.534879289462 11.534879289462 11.534879289462 133.05344022247
163	29967 24 5 5 3 3 1 11.244676502546 11.244676502546 11.244676502546 126.44274964692
164	29991 24 5 5 3 3 1 10.386096055465 10.386096055465 10.386096055465 107.87099127334
165	30015 24 5 5 3 3 1 10.914303933918 10.914303933918 10.914303933918 119.12203036194
166	30039 24 5 5 3 3 1 10.803219760437 10.803219760437 10.803219760437 116.70955719229
167	30063 24 5 5 3 3 1 10.853527296884 10.853527296884 10.853527296884 117.79905478421
168	30087 24 5 5 3 3 1 10.956342532418 10.956342532418 10.956342532418 120.04144168767
169	30111 24 5 5 3 3 1 10.706024662753 10.706024662753 10.706024662753 114.61896407948
170	30135 24 5 5 3 3 1 10.259439540701 10.259439540701 10.259439540701 105.2560996893
171	30159 24 5 5 3 3 1 10.189362948308 10.189362948308 10.189362948308 103.82311729236
172	30183 23 5 5 3 3 1 12.48912707687 12.48912707687 12.48912707687 155.97829514221
173	30206 22 5 5 3 3 1 10.1915418965 10.1915418965 10.1915418965 103.86752622812
174	30228 24 5 5 3 3 1 10.444554901855 10.444554901855 10.444554901855 109.08872709787
175	30252 24 5 5 3 3 1 10.344029127451 10.344029127451 10.344029127451 106.99893858955
176	30276 24 5 5 3 3 1 10.266999508393 10.266999508393 10.266999508393 105.41127890533
177	30300 24 5 5 3 3 1 10.165320011659 10.165320011659 10.165320011659 103.33373093944
178	30324 24 5 5 3 3 1 10.146311668423 10.146311668423 10.146311668423 102.94764047277
179	30348 24 5 5 3 3 1 10.445629714601 10.445629714601 10.445629714601 109.11118013457
180	30372 24 5 5 3 3 1 10.064341475007 10.064341475007 10.064341475007 101.29096932555
181	30396 24 5 5 3 3 1 10.330726649384 10.330726649384 10.330726649384 106.72391310429
182	30420 24 5 5 3 3 1 10.348987168211 10.348987168211 10.348987168211 107.10153540779
183	30444 24 5 5 3 3 1 12.969348384117 12.969348384117 12.969348384117 168.2039975086
184	30468 24 5 5 3 3 1 10.351949188095 10.351949188095 10.351949188095 107.16285199291
185	30492 24 5 5 3 3 1 9.9210183941934 9.9210183941934 9.9210183941934 98.426605977924
186	30516 24 5 5 3 3 1 9.8288802084296 9.8288802084296 9.8288802084296 96.606886151658
187	30540 24 5 5 3 3 1 9.8159480637363 9.8159480637363 9.8159480637363 96.352836389969
188	30564 24 5 5 3 3 1 9.9133523310638 9.9133523310638 9.9133523310638 98.274554439808
189	30588 24 5 5 3 3 1 12.564675807372 12.564675807372 12.564675807372 157.87107814436
190	30612 23 5 5 3 3 1 12.47284051799 12.47284051799 12.47284051799 155.57175058721
191	30635 24 5 5 3 3 1 12.338736833915 12.338736833915 12.338736833915 152.24442665661
192	30659 24 5 5 3 3 1 1.8107530265627 1.8107530265627 1.8107530265627 3.2788265232061
193	30683 24 5 5 3 3 1 7.1012751932613 7.1012751932613 7.1012751932613 50.428109370428
194	30707 24 5 5 3 3 1 1.9744104766496 1.9744104766496 1.9744104766496 3.8982967303039
195	30731 24 5 5 3 3 1 7.7611136371154 7.7611136371154 7.7611136371154 60.234884888218
196	30755 24 5 5 3 3 1 1.6548911606593 1.6548911606593 1.6548911606593 2.7386647536282
197	30779 23 5 5 3 3 1 6.260798144041 6.260798144041 6.260798144041 39.197593400428
198	30802 24 5 5 3 3 1 2.0312844179966 2.0312844179966 2.0312844179966 4.126116386796
199	30826 24 5 5 3 3 1 8.2098037936122 8.2098037936122 8.2098037936122 67.400878329609
200	30850 22 5 5 3 3 1 2.00578505015 2.00578505015 2.00578505015 4.0231736674053
201	30872 24 5 5 3 3 1 8.1644277226126 8.1644277226126 8.1644277226126 66.657880037766
202	30896 24 5 5 3 3 1 2.0515538822813 2.0515538822813 2.0515538822813 4.2088733319034
203	30920 24 5 5 3 3 1 7.9482614520719 7.9482614520719 7.9482614520719 63.174860110493
204	30944 24 5 5 3 3 1 2.0108971667918 2.0108971667918 2.0108971667918 4.0437074154114
205	30968 24 5 5 3 3 1 7.7242928878551 7.7242928878551 7.7242928878551 59.664700617369
206	30992 24 5 5 3 3 1 1.9118929895363 1.9118929895363 1.9118929895363 3.655334803438
207	31016 24 5 5 3 3 1 7.4899796925672 7.4899796925672 7.4899796925672 56.099795795069
208	31040 24 5 5 3 3 1 2.0005595827848 2.0005595827848 2.0005595827848 4.002238644272
209	31064 24 5 5 3 3 1 7.7753977145517 7.7753977145517 7.7753977145517 60.456809619456
210	31088 24 5 5 3 3 1 2.1313996902248 2.1313996902248 2.1313996902248 4.5428646394903
211	31112 24 5 5 3 3 1 8.0456308305001 8.0456308305001 8.0456308305001 64.732175460693
212	31136 24 5 5 3 3 1 1.7732199764927 1.7732199764927 1.7732199764927 3.1443090850327
213	31160 24 5 5 3 3 1 7.2248640202045 7.2248640202045 7.2248640202045 52.198660110446
214	31184 24 5 5 3 3 1 2.0144298926601 2.0144298926601 2.0144298926601 4.0579277924426
215	31208 24 5 5 3 3 1 7.6083320113347 7.6083320113347 7.6083320113347 57.886715994701
216	31232 24 5 5 3 3 1 1.6922523188725 1.6922523188725 1.6922523188725 2.8637179107293
217	31256 24 5 5 3 3 1 6.1848789814761 6.1848789814761 6.1848789814761 38.252728015505
218	31280 24 5 5 3 3 1 1.8711550436472 1.8711550436472 1.8711550436472 3.5012211973662
219	31304 24 5 5 3 3 1 7.1831522672992 7.1831522672992 7.1831522672992 51.597676495205
220	31328 24 5 5 3 3 1 1.8919216910121 1.8919216910121 1.8919216910121 3.5793676849221
221	31352 24 5 5 3 3 1 7.2800198051268 7.2800198051268 7.2800198051268 52.998688363039
222	31376 24 5 5 3 3 1 1.5387100356286 1.5387100356286 1.5387100356286 2.3676285737442
223	31400 24 5 5 3 3 1 5.7832870128124 5.7832870128124 5.7832870128124 33.446408672564
224	31424 24 5 5 3 3 1 1.9647256804002 1.9647256804002 1.9647256804002 3.8601469992238
225	31448 24 5 5 3 3 1 7.4515967026551 7.4515967026551 7.4515967026551 55.52629341902
226	31472 24 5 5 3 3 1 1.8545045317546 1.8545045317546 1.8545045317546 3.4391870582985
227	31496 24 5 5 3 3 1 7.1593492313486 7.1593492313486 7.1593492313486 51.256281416412
228	31520 24 5 5 3 3 1 1.9580602720985 1.9580602720985 1.9580602720985 3.8340000291705
229	31544 24 5 5 3 3 1 7.2500701163834 7.2500701163834 7.2500701163834 52.563516692476
230	31568 24 5 5 3 3 1 1.6074168082766 1.6074168082766 1.6074168082766 2.5837887955302
231	31592 24 5 5 3 3 1 5.8372059650123 5.8372059650123 5.8372059650123 34.072973477975
232	31616 24 5 5 3 3 1 1.8242644408136 1.8242644408136 1.8242644408136 3.3279407500168
233	31640 23 5 5 3 3 1 6.734926148757 6.734926148757 6.734926148757 45.359230229211
234	31663 24 5 5 3 3 1 1.9393104292778 1.9393104292778 1.9393104292778 3.7609249411058
235	31687 24 5 5 3 3 1 7.5674221474878 7.5674221474878 7.5674221474878 57.265877958289
236	31711 24 5 5 3 3 1 1.7591806250135 1.7591806250135 1.7591806250135 3.094716471423
237	31735 23 5 5 3 3 1 6.470881622886 6.470881622886 6.470881622886 41.872308977403
238	31758 24 5 5 3 3 1 1.8867455783184 1.8867455783184 1.8867455783184 3.5598088773039
239	31782 24 5 5 3 3 1 6.8908332906398 6.8908332906398 6.8908332906398 47.48358343939
240	31806 24 5 5 3 3 1 1.9969838696904 1.9969838696904 1.9969838696904 3.9879445758038
241	31830 24 5 5 3 3 1 7.2475223380095 7.2475223380095 7.2475223380095 52.526580039947
242	31854 24 5 5 3 3 1 1.9187125777407 1.9187125777407 1.9187125777407 3.6814579559802
243	31878 24 5 5 3 3 1 6.9654471889232 6.9654471889232 6.9654471889232 48.517454541678
244	31902 24 5 5 3 3 1 1.8843008567044 1.8843008567044 1.8843008567044 3.5505897185768
245	31926 24 5 5 3 3 1 6.8258922362359 6.8258922362359 6.8258922362359 46.592804820706
246	31950 24 5 5 3 3 1 2.0050454800273 2.0050454800273 2.0050454800273 4.020207376978
247	31974 24 5 5 3 3 1 7.2420969870398 7.2420969870398 7.2420969870398 52.447968769691
248	31998 24 5 5 3 3 1 1.6186007217707 1.6186007217707 1.6186007217707 2.6198682965166
249	32022 23 5 5 3 3 1 5.758015175489 5.758015175489 5.758015175489 33.154738761161
250	32045 24 5 5 3 3 1 2.1006825294904 2.1006825294904 2.1006825294904 4.4128670897063
251	32069 24 5 5 3 3 1 7.3741627307857 7.3741627307857 7.3741627307857 54.378275980109
252	32093 24 5 5 3 3 1 2.1119190316601 2.1119190316601 2.1119190316601 4.460201996288
253	32117 24 5 5 3 3 1 7.5763854107135 7.5763854107135 7.5763854107135 57.401615891673
254	32141 24 5 5 3 3 1 1.7553420730179 1.7553420730179 1.7553420730179 3.0812257933068
255	32165 24 5 5 3 3 1 6.1553348287012 6.1553348287012 6.1553348287012 37.888146853422
256	32189 24 5 5 3 3 1 1.8216978184367 1.8216978184367 1.8216978184367 3.3185829416969
257	32213 24 5 5 3 3 1 7.3048066234189 7.3048066234189 7.3048066234189 53.360199805544
258	32237 24 5 5 3 3 1 2.1017211482301 2.1017211482301 2.1017211482301 4.4172317849178
259	32261 23 5 5 3 3 1 7.650808597796 7.650808597796 7.650808597796 58.53487220011
260	32284 24 5 5 3 3 1 1.9333216802147 1.9333216802147 1.9333216802147 3.7377327191883
261	32308 24 5 5 3 3 1 7.0230262336074 7.0230262336074 7.0230262336074 49.322897477938
262	32332 24 5 5 3 3 1 1.6300786206175 1.6300786206175 1.6300786206175 2.6571563093941
263	32356 24 5 5 3 3 1 5.7946896397537 5.7946896397537 5.7946896397537 33.578428021069
264	32380 24 5 5 3 3 1 2.0382102212776 2.0382102212776 2.0382102212776 4.1543009061203
265	32404 23 5 5 3 3 1 7.117811595196 7.117811595196 7.117811595196 50.663241904707
266	32427 24 5 5 3 3 1 1.8754585067928 1.8754585067928 1.8754585067928 3.5173446107014
267	32451 24 5 5 3 3 1 6.6305209019264 6.6305209019264 6.6305209019264 43.963807430883
268	32475 24 5 5 3 3 1 1.8980998099293 1.8980998099293 1.8980998099293 3.6027828884535
269	32499 24 5 5 3 3 1 6.7165436337772 6.7165436337772 6.7165436337772 45.111958384434
270	32523 24 5 5 3 3 1 1.9191583675705 1.9191583675705 1.9191583675705 3.6831688398158
271	32547 24 5 5 3 3 1 6.8275285707999 6.8275285707999 6.8275285707999 46.615146385089
272	32571 24 5 5 3 3 1 1.9398440318252 1.9398440318252 1.9398440318252 3.7629948678078
273	32595 24 5 5 3 3 1 6.7449103456872 6.7449103456872 6.7449103456872 45.493815571358
274	32619 24 5 5 3 3 1 1.7752479924192 1.7752479924192 1.7752479924192 3.1515054345883
275	32643 24 5 5 3 3 1 6.0940173313941 6.0940173313941 6.0940173313941 37.137047235332
276	32667 24 5 5 3 3 1 1.9204745884566 1.9204745884566 1.9204745884566 3.6882226449074
277	32691 24 5 5 3 3 1 6.4152491337485 6.4152491337485 6.4152491337485 41.155421448061
278	32715 24 5 5 3 3 1 1.8651196796494 1.8651196796494 1.8651196796494 3.4786714194153
279	32739 24 5 5 3 3 1 7.5062182967122 7.5062182967122 7.5062182967122 56.343313117897
280	32763 24 5 5 3 3 1 1.8179390308051 1.8179390308051 1.8179390308051 3.3049023197247
281	32787 24 5 5 3 3 1 6.1645815479975 6.1645815479975 6.1645815479975 38.002065661911
282	32811 24 5 5 3 3 1 1.9476824473217 1.9476824473217 1.9476824473217 3.7934669156051
283	32835 24 5 5 3 3 1 6.6216852491479 6.6216852491479 6.6216852491479 43.846715538783
284	32859 24 5 5 3 3 1 1.9583656821074 1.9583656821074 1.9583656821074 3.835196144856
285	32883 24 5 5 3 3 1 6.5932723117415 6.5932723117415 6.5932723117415 43.471239776777
286	32907 24 5 5 3 3 1 1.9462843702151 1.9462843702151 1.9462843702151 3.7880228497437
287	32931 24 5 5 3 3 1 6.5210404585034 6.5210404585034 6.5210404585034 42.523968661438
288	32955 24 5 5 3 3 1 1.7580766888428 1.7580766888428 1.7580766888428 3.0908336438526
289	32979 23 5 5 3 3 1 6.004422028873 6.004422028873 6.004422028873 36.053083900815
290	33002 24 5 5 3 3 1 1.8703979924624 1.8703979924624 1.8703979924624 3.4983886502073
291	33026 24 5 5 3 3 1 6.2695628786721 6.2695628786721 6.2695628786721 39.307418689624
292	33050 24 5 5 3 3 1 2.0307965857256 2.0307965857256 2.0307965857256 4.1241347725948
293	33074 24 5 5 3 3 1 6.8315053664814 6.8315053664814 6.8315053664814 46.669465572265
294	33098 24 5 5 3 3 1 1.8723771994188 1.8723771994188 1.8723771994188 3.5057963769035
295	33122 24 5 5 3 3 1 6.2311400330507 6.2311400330507 6.2311400330507 38.827106111487
296	33146 24 5 5 3 3 1 2.1343974584783 2.1343974584783 2.1343974584783 4.5556525107588
297	33170 24 5 5 3 3 1 7.0242255408093 7.0242255408093 7.0242255408093 49.339744448158
298	33194 24 5 5 3 3 1 1.9643883454171 1.9643883454171 1.9643883454171 3.8588215716105
299	33218 24 5 5 3 3 1 6.6110197679561 6.6110197679561 6.6110197679561 43.705582372307
300	33242 24 5 5 3 3 1 2.0931381726312 2.0931381726312 2.0931381726312 4.3812274097257
301	33266 24 5 5 3 3 1 8.4795053463736 8.4795053463736 8.4795053463736 71.902010919179
302	33290 24 5 5 3 3 1 1.9849556852831 1.9849556852831 1.9849556852831 3.9400490725375
303	33314 24 5 5 3 3 1 6.6639646770339 6.6639646770339 6.6639646770339 44.408425216756
304	33338 24 5 5 3 3 1 1.8992099001561 1.8992099001561 1.8992099001561 3.606998244851
305	33362 24 5 5 3 3 1 6.2197424014659 6.2197424014659 6.2197424014659 38.685195540593
306	33386 24 5 5 3 3 1 1.7953547540936 1.7953547540936 1.7953547540936 3.2232986930464
307	33410 24 5 5 3 3 1 5.9246271541844 5.9246271541844 5.9246271541844 35.1012069161
308	33434 24 5 5 3 3 1 1.8604544186033 1.8604544186033 1.8604544186033 3.4612906437007
309	33458 24 5 5 3 3 1 6.0720646369268 6.0720646369268 6.0720646369268 36.869968955016
310	33482 24 5 5 3 3 1 1.8662851642212 1.8662851642212 1.8662851642212 3.4830203141921
311	33506 24 5 5 3 3 1 6.1369937332296 6.1369937332296 6.1369937332296 37.662692081699
312	33530 24 5 5 3 3 1 1.9571746888594 1.9571746888594 1.9571746888594 3.8305327627118
313	33554 24 5 5 3 3 1 7.8258575840023 7.8258575840023 7.8258575840023 61.244046925086
314	33578 24 5 5 3 3 1 1.9837394900946 1.9837394900946 1.9837394900946 3.9352223645607
315	33602 24 5 5 3 3 1 7.8539745795754 7.8539745795754 7.8539745795754 61.684916696617
316	33626 22 5 5 3 3 1 1.91181892263 1.91181892263 1.91181892263 3.6550515929263
317	33648 24 5 5 3 3 1 7.5638075176703 7.5638075176703 7.5638075176703 57.211184164366
2	33672 22 6 6 4 4 1 139.35508977434 139.35508977434 139.35508977434 19419.841046014
3	33694 12 6 6 4 4 1 20.35 20.35 20.35 414.1225
4	33706 22 6 6 4 4 1 154.02115328985 154.02115328985 154.02115328985 23722.515660734
5	33728 12 6 6 4 4 1 17.25 17.25 17.25 297.5625
6	33740 22 6 6 4 4 1 172.26825385527 172.26825385527 172.26825385527 29676.351286343
7	33762 12 6 6 4 4 1 17.25 17.25 17.25 297.5625
8	33774 22 6 6 4 4 1 183.27287853674 183.27287853674 183.27287853674 33588.948007141
9	33796 12 6 6 4 4 1 20.35 20.35 20.35 414.1225
10	33808 22 6 6 4 4 1 198.7184230229 198.7184230229 198.7184230229 39489.011648707
11	33830 13 6 6 4 4 1 17.25 17.25 17.25 297.5625
12	33843 23 6 6 4 4 1 216.05707925728 216.05707925728 216.05707925728 46680.661497188
13	33866 13 6 6 4 4 1 20.35 20.35 20.35 414.1225
14	33879 23 6 6 4 4 1 232.25396201983 232.25396201983 232.25396201983 53941.902873909
15	33902 13 6 6 4 4 1 17.25 17.25 17.25 297.5625
16	33915 23 6 6 4 4 1 247.36834410157 247.36834410157 247.36834410157 61191.097663554
17	33938 13 6 6 4 4 1 20.35 20.35 20.35 414.1225
18	33951 23 6 6 4 4 1 262.83019421619 262.83019421619 262.83019421619 69079.710991722
19	33974 13 6 6 4 4 1 17.25 17.25 17.25 297.5625
20	33987 23 6 6 4 4 1 279.15730188279 279.15730188279 279.15730188279 77928.79919448
21	34010 13 6 6 4 4 1 20.35 20.35 20.35 414.1225
24	34023 23 6 6 4 4 1 295.26164304285 295.26164304285 295.26164304285 87179.437852361
25	34046 13 6 6 4 4 1 17.25 17.25 17.25 297.5625
26	34059 23 6 6 4 4 1 313.13187472566 313.13187472566 313.13187472566 98051.570969207
27	34082 13 6 6 4 4 1 17.25 17.25 17.25 297.5625
28	34095 23 6 6 4 4 1 325.92214748833 325.92214748833 325.92214748833 106225.2462234
29	34118 13 6 6 4 4 1 20.35 20.35 20.35 414.1225
30	34131 23 6 6 4 4 1 341.16311519384 341.16311519384 341.16311519384 116392.27116876
31	34154 13 6 6 4 4 1 17.25 17.25 17.25 297.5625
32	34167 23 6 6 4 4 1 359.11870220051 359.11870220051 359.11870220051 128966.24227018
33	34190 13 6 6 4 4 1 17.25 17.25 17.25 297.5625
34	34203 23 6 6 4 4 1 372.37888232101 372.37888232101 372.37888232101 138666.03199865
35	34226 13 6 6 4 4 1 20.35 20.35 20.35 414.1225
36	34239 23 6 6 4 4 1 387.73967476845 387.73967476845 387.73967476845 150342.05538954
37	34262 13 6 6 4 4 1 17.25 17.25 17.25 297.5625
38	34275 23 6 6 4 4 1 404.44329878237 404.44329878237 404.44329878237 163574.38192997
39	34298 13 6 6 4 4 1 20.35 20.35 20.35 414.1225
40	34311 23 6 6 4 4 1 422.15962109944 422.15962109944 422.15962109944 178218.74568683
41	34334 13 6 6 4 4 1 20.35 20.35 20.35 414.1225
42	34347 23 6 6 4 4 1 435.95152161653 435.95152161653 435.95152161653 190053.72919977
43	34370 13 6 6 4 4 1 17.25 17.25 17.25 297.5625
44	34383 22 6 6 4 4 1 30.19265652443 30.19265652443 30.19265652443 911.59650800218
45	34405 13 6 6 4 4 1 17.25 17.25 17.25 297.5625
46	34418 23 6 6 4 4 1 451.79792832678 451.79792832678 451.79792832678 204121.36804037
47	34441 13 6 6 4 4 1 20.35 20.35 20.35 414.1225
48	34454 22 6 6 4 4 1 467.0823943693 467.0823943693 467.0823943693 218165.96312975
49	34476 13 6 6 4 4 1 17.25 17.25 17.25 297.5625
50	34489 23 6 6 4 4 1 482.48405567285 482.48405567285 482.48405567285 232790.86397852
51	34512 13 6 6 4 4 1 20.35 20.35 20.35 414.1225
52	34525 23 6 6 4 4 1 498.39626381432 498.39626381432 498.39626381432 248398.83578408
53	34548 13 6 6 4 4 1 17.25 17.25 17.25 297.5625
54	34561 23 6 6 4 4 1 513.98938482911 513.98938482911 513.98938482911 264185.08771701
55	34584 13 6 6 4 4 1 20.35 20.35 20.35 414.1225
56	34597 23 6 6 4 4 1 529.07802894807 529.07802894807 529.07802894807 279923.56071557
57	34620 13 6 6 4 4 1 17.25 17.25 17.25 297.5625
58	34633 23 6 6 4 4 1 546.69935912303 546.69935912303 546.69935912303 298880.18926553
59	34656 13 6 6 4 4 1 17.25 17.25 17.25 297.5625
60	34669 23 6 6 4 4 1 560.69919652864 560.69919652864 560.69919652864 314383.58898786
61	34692 13 6 6 4 4 1 20.35 20.35 20.35 414.1225
62	34705 23 6 6 4 4 1 575.66805328811 575.66805328811 575.66805328811 331393.70757653
63	34728 13 6 6 4 4 1 17.25 17.25 17.25 297.5625
64	34741 23 6 6 4 4 1 593.24917354492 593.24917354492 593.24917354492 351944.58191173
65	34764 13 6 6 4 4 1 17.25 17.25 17.25 297.5625
66	34777 23 6 6 4 4 1 44.916806666868 44.916806666868 44.916806666868 2017.5195211488
67	34800 13 6 6 4 4 1 20.35 20.35 20.35 414.1225
68	34813 23 6 6 4 4 1 606.07480960318 606.07480960318 606.07480960318 367326.67483553
69	34836 13 6 6 4 4 1 20.35 20.35 20.35 414.1225
70	34849 23 6 6 4 4 1 622.18289040198 622.18289040198 622.18289040198 387111.54910896
71	34872 13 6 6 4 4 1 17.25 17.25 17.25 297.5625
72	34885 23 6 6 4 4 1 639.75762181308 639.75762181308 639.75762181308 409289.81466793
73	34908 13 6 6 4 4 1 17.25 17.25 17.25 297.5625
74	34921 22 6 6 4 4 1 654.2693316308 654.2693316308 654.2693316308 428068.35831262
75	34943 13 6 6 4 4 1 20.35 20.35 20.35 414.1225
76	34956 22 6 6 4 4 1 669.7113695215 669.7113695215 669.7113695215 448513.31846636
77	34978 13 6 6 4 4 1 17.25 17.25 17.25 297.5625
78	34991 23 6 6 4 4 1 685.31984477081 685.31984477081 685.31984477081 469663.28963668
79	35014 13 6 6 4 4 1 20.35 20.35 20.35 414.1225
80	35027 23 6 6 4 4 1 700.54540779638 700.54540779638 700.54540779638 490763.86838459
81	35050 13 6 6 4 4 1 17.25 17.25 17.25 297.5625
82	35063 23 6 6 4 4 1 716.75579780601 716.75579780601 716.75579780601 513738.87368853
83	35086 13 6 6 4 4 1 20.35 20.35 20.35 414.1225
84	35099 23 6 6 4 4 1 733.15380569675 733.15380569675 733.15380569675 537514.50280762
85	35122 13 6 6 4 4 1 17.25 17.25 17.25 297.5625
86	35135 23 6 6 4 4 1 748.94792039151 748.94792039151 748.94792039151 560922.98745877
87	35158 13 6 6 4 4 1 20.35 20.35 20.35 414.1225
88	35171 23 6 6 4 4 1 60.216845086773 60.216845086773 60.216845086773 3626.0684322044
89	35194 13 6 6 4 4 1 17.25 17.25 17.25 297.5625
90	35207 23 6 6 4 4 1 764.22842237271 764.22842237271 764.22842237271 584045.08156228
91	35230 13 6 6 4 4 1 17.25 17.25 17.25 297.5625
92	35243 23 6 6 4 4 1 779.26874445183 779.26874445183 779.26874445183 607259.77607952
93	35266 13 6 6 4 4 1 20.35 20.35 20.35 414.1225
94	35279 23 6 6 4 4 1 795.05649460138 795.05649460138 795.05649460138 632114.82960784
95	35302 13 6 6 4 4 1 17.25 17.25 17.25 297.5625
96	35315 23 6 6 4 4 1 810.74562129628 810.74562129628 810.74562129628 657308.46245109
97	35338 13 6 6 4 4 1 20.35 20.35 20.35 414.1225
98	35351 23 6 6 4 4 1 826.20842871103 826.20842871103 826.20842871103 682620.36767315
99	35374 13 6 6 4 4 1 17.25 17.25 17.25 297.5625
100	35387 23 6 6 4 4 1 841.8775915666 841.8775915666 841.8775915666 708757.87918198
101	35410 14 6 6 4 4 1 20.35 20.35 20.35 414.1225
102	35424 24 6 6 4 4 1 856.62035288848 856.62035288848 856.62035288848 733798.42898279
103	35448 14 6 6 4 4 1 17.25 17.25 17.25 297.5625
104	35462 24 6 6 4 4 1 872.99297056641 872.99297056641 872.99297056641 762116.72665836
105	35486 14 6 6 4 4 1 20.35 20.35 20.35 414.1225
106	35500 24 6 6 4 4 1 888.22803290375 888.22803290375 888.22803290375 788949.03843607
107	35524 14 6 6 4 4 1 17.25 17.25 17.25 297.5625
108	35538 24 6 6 4 4 1 903.44873067744 903.44873067744 903.44873067744 816219.60896268
109	35562 14 6 6 4 4 1 20.35 20.35 20.35 414.1225
110	35576 23 6 6 4 4 1 74.68698537889 74.68698537889 74.68698537889 5578.1457849865
111	35599 14 6 6 4 4 1 20.35 20.35 20.35 414.1225
112	35613 24 6 6 4 4 1 918.91890534719 918.91890534719 918.91890534719 844411.95460448
113	35637 14 6 6 4 4 1 17.25 17.25 17.25 297.5625
114	35651 24 6 6 4 4 1 935.30613188678 935.30613188678 935.30613188678 874797.56034502
115	35675 14 6 6 4 4 1 20.35 20.35 20.35 414.1225
116	35689 24 6 6 4 4 1 951.08342263506 951.08342263506 951.08342263506 904559.67681123
117	35713 14 6 6 4 4 1 17.25 17.25 17.25 297.5625
118	35727 24 6 6 4 4 1 966.65731359453 966.65731359453 966.65731359453 934426.3619258
119	35751 14 6 6 4 4 1 20.35 20.35 20.35 414.1225
120	35765 24 6 6 4 4 1 981.77463946525 981.77463946525 981.77463946525 963881.44269713
121	35789 14 6 6 4 4 1 17.25 17.25 17.25 297.5625
122	35803 24 6 6 4 4 1 91.224250963537 91.224250963537 91.224250963537 8321.8639638585
123	35827 14 6 6 4 4 1 17.25 17.25 17.25 297.5625
124	35841 24 6 6 4 4 1 107.14423648519 107.14423648519 107.14423648519 11479.887411995
125	35865 14 6 6 4 4 1 20.35 20.35 20.35 414.1225
126	35879 24 6 6 4 4 1 122.80645952296 122.80645952296 122.80645952296 15081.426500564
127	35903 14 6 6 4 4 1 17.25 17.25 17.25 297.5625
129	35917 23 6 6 4 4 1 13.86775679869 13.86775679869 13.86775679869 192.31467862761
130	35940 24 6 6 4 4 1 14.395850676588 14.395850676588 14.395850676588 207.24051670263
131	35964 24 6 6 4 4 1 13.075655831524 13.075655831524 13.075655831524 170.97277542446
132	35988 24 6 6 4 4 1 14.916270245521 14.916270245521 14.916270245521 222.49511803741
133	36012 24 6 6 4 4 1 14.374463818825 14.374463818825 14.374463818825 206.62521007871
134	36036 24 6 6 4 4 1 14.454970195856 14.454970195856 14.454970195856 208.94616336308
135	36060 22 6 6 4 4 1 13.9357881121 13.9357881121 13.9357881121 194.20619030533
136	36082 24 6 6 4 4 1 14.255320135797 14.255320135797 14.255320135797 203.21415217405
137	36106 24 6 6 4 4 1 14.287490932881 14.287490932881 14.287490932881 204.13239715715
138	36130 24 6 6 4 4 1 13.806381192432 13.806381192432 13.806381192432 190.61616163074
140	36154 24 6 6 4 4 1 13.784483282123 13.784483282123 13.784483282123 190.01197935514
141	36178 23 6 6 4 4 1 12.50638181192 12.50638181192 12.50638181192 156.40958602551
142	36201 24 6 6 4 4 1 13.683276409799 13.683276409799 13.683276409799 187.23205330696
143	36225 24 6 6 4 4 1 13.784752448808 13.784752448808 13.784752448808 190.01940007493
144	36249 24 6 6 4 4 1 12.670178268355 12.670178268355 12.670178268355 160.53341735189
145	36273 24 6 6 4 4 1 13.868823171635 13.868823171635 13.868823171635 192.34425616608
146	36297 24 6 6 4 4 1 13.892861572607 13.892861572607 13.892861572607 193.01160267561
147	36321 24 6 6 4 4 1 13.542384260412 13.542384260412 13.542384260412 183.39617145666
148	36345 24 6 6 4 4 1 12.495415336095 12.495415336095 12.495415336095 156.13540442151
149	36369 24 6 6 4 4 1 13.430470010388 13.430470010388 13.430470010388 180.37752469994
150	36393 24 6 6 4 4 1 14.316022187623 14.316022187623 14.316022187623 204.94849127652
151	36417 24 6 6 4 4 1 13.218590507964 13.218590507964 13.218590507964 174.73113501724
152	36441 24 6 6 4 4 1 13.050666149968 13.050666149968 13.050666149968 170.31988695792
153	36465 24 6 6 4 4 1 13.329147500429 13.329147500429 13.329147500429 177.6661730882
154	36489 23 6 6 4 4 1 12.93465490171 12.93465490171 12.93465490171 167.30529742632
155	36512 24 6 6 4 4 1 13.132484334553 13.132484334553 13.132484334553 172.46214479729
156	36536 24 6 6 4 4 1 13.398633409915 13.398633409915 13.398633409915 179.52337725329
157	36560 24 6 6 4 4 1 12.197492731961 12.197492731961 12.197492731961 148.77882894625
158	36584 24 6 6 4 4 1 13.065416769383 13.065416769383 13.065416769383 170.70511535768
159	36608 24 6 6 4 4 1 13.188080413852 13.188080413852 13.188080413852 173.92546500222
160	36632 24 6 6 4 4 1 12.022765351874 12.022765351874 12.022765351874 144.54688670623
161	36656 24 6 6 4 4 1 14.379746813174 14.379746813174 14.379746813174 206.77711841098
162	36680 24 6 6 4 4 1 13.635688787575 13.635688787575 13.635688787575 185.9320087116
163	36704 24 6 6 4 4 1 13.300777516229 13.300777516229 13.300777516229 176.91068253622
164	36728 23 6 6 4 4 1 12.28338449584 12.28338449584 12.28338449584 150.88153467264
165	36751 23 6 6 4 4 1 12.80405694533 12.80405694533 12.80405694533 163.94387425924
166	36774 24 6 6 4 4 1 12.900103658036 12.900103658036 12.900103658036 166.41267438808
[...]
308	96794 26 15 15 13 13 1 1.9534063884849 1.9534063884849 1.9534063884849 3.8157965185736
309	96820 26 15 15 13 13 1 18.235967803307 18.235967803307 18.235967803307 332.55052172325
310	96846 26 15 15 13 13 1 1.8282061683503 1.8282061683503 1.8282061683503 3.3423377939941
311	96872 26 15 15 13 13 1 14.447204812247 14.447204812247 14.447204812247 208.72172688702
18	96898 25 16 16 14 14 1 48.335268461751 48.335268461751 48.335268461751 2336.2981772695
19	96923 15 16 16 14 14 1 17.25 17.25 17.25 297.5625
20	96938 25 16 16 14 14 1 45.501125454228 45.501125454228 45.501125454228 2070.3524176014
21	96963 15 16 16 14 14 1 20.35 20.35 20.35 414.1225
24	96978 25 16 16 14 14 1 81.472103381119 81.472103381119 81.472103381119 6637.7036293437
25	97003 15 16 16 14 14 1 17.25 17.25 17.25 297.5625
26	97018 24 16 16 14 14 1 110.9710087941 110.9710087941 110.9710087941 12314.564792781
27	97042 15 16 16 14 14 1 17.25 17.25 17.25 297.5625
28	97057 25 16 16 14 14 1 88.253095411894 88.253095411894 88.253095411894 7788.608849781
29	97082 15 16 16 14 14 1 23.45 23.45 23.45 549.9025
30	97097 25 16 16 14 14 1 140.85713872467 140.85713872467 140.85713872467 19840.733529702
31	97122 15 16 16 14 14 1 17.25 17.25 17.25 297.5625
32	97137 25 16 16 14 14 1 163.18670112294 163.18670112294 163.18670112294 26629.899423389
33	97162 15 16 16 14 14 1 20.35 20.35 20.35 414.1225
34	97177 25 16 16 14 14 1 133.34893765346 133.34893765346 133.34893765346 17781.939173306
35	97202 15 16 16 14 14 1 20.35 20.35 20.35 414.1225
36	97217 25 16 16 14 14 1 190.78670271849 190.78670271849 190.78670271849 36399.565934193
37	97242 15 16 16 14 14 1 17.25 17.25 17.25 297.5625
38	97257 25 16 16 14 14 1 170.21666069814 170.21666069814 170.21666069814 28973.711579226
39	97282 15 16 16 14 14 1 23.45 23.45 23.45 549.9025
40	97297 25 16 16 14 14 1 207.99448304282 207.99448304282 207.99448304282 43261.70497625
41	97322 15 16 16 14 14 1 20.35 20.35 20.35 414.1225
42	97337 24 16 16 14 14 1 228.1044981781 228.1044981781 228.1044981781 52031.662089085
43	97361 15 16 16 14 14 1 17.25 17.25 17.25 297.5625
46	97376 24 16 16 14 14 1 223.4092078921 223.4092078921 223.4092078921 49911.674170975
47	97400 15 16 16 14 14 1 23.45 23.45 23.45 549.9025
48	97415 25 16 16 14 14 1 259.89379332423 259.89379332423 259.89379332423 67544.78380846
49	97440 15 16 16 14 14 1 17.25 17.25 17.25 297.5625
50	97455 24 16 16 14 14 1 256.7987856047 256.7987856047 256.7987856047 65945.616288047
51	97479 15 16 16 14 14 1 20.35 20.35 20.35 414.1225
52	97494 25 16 16 14 14 1 291.57329299797 291.57329299797 291.57329299797 85014.985189679
53	97519 15 16 16 14 14 1 17.25 17.25 17.25 297.5625
54	97534 25 16 16 14 14 1 286.05397860172 286.05397860172 286.05397860172 81826.878673875
55	97559 15 16 16 14 14 1 23.45 23.45 23.45 549.9025
56	97574 25 16 16 14 14 1 322.91373624635 322.91373624635 322.91373624635 104273.28105657
57	97599 15 16 16 14 14 1 17.25 17.25 17.25 297.5625
58	97614 25 16 16 14 14 1 351.42188112599 351.42188112599 351.42188112599 123497.33853413
59	97639 15 16 16 14 14 1 17.25 17.25 17.25 297.5625
60	97654 25 16 16 14 14 1 331.10701328397 331.10701328397 331.10701328397 109631.85424583
61	97679 15 16 16 14 14 1 20.35 20.35 20.35 414.1225
62	97694 25 16 16 14 14 1 380.84804815731 380.84804815731 380.84804815731 145045.23578523
63	97719 15 16 16 14 14 1 17.25 17.25 17.25 297.5625
64	97734 24 16 16 14 14 1 385.5900056846 385.5900056846 385.5900056846 148679.65248385
65	97758 15 16 16 14 14 1 20.35 20.35 20.35 414.1225
68	97773 25 16 16 14 14 1 369.01934714753 369.01934714753 369.01934714753 136175.27856919
69	97798 15 16 16 14 14 1 23.45 23.45 23.45 549.9025
70	97813 24 16 16 14 14 1 421.0249387839 421.0249387839 421.0249387839 177261.99907799
71	97837 15 16 16 14 14 1 17.25 17.25 17.25 297.5625
72	97852 25 16 16 14 14 1 449.21557181822 449.21557181822 449.21557181822 201794.62996397
73	97877 15 16 16 14 14 1 17.25 17.25 17.25 297.5625
74	97892 25 16 16 14 14 1 431.09890100176 431.09890100176 431.09890100176 185846.26244493
75	97917 15 16 16 14 14 1 20.35 20.35 20.35 414.1225
76	97932 25 16 16 14 14 1 478.49865200734 478.49865200734 478.49865200734 228960.95997284
77	97957 15 16 16 14 14 1 17.25 17.25 17.25 297.5625
78	97972 25 16 16 14 14 1 459.37059150387 459.37059150387 459.37059150387 211021.34033862
79	97997 15 16 16 14 14 1 23.45 23.45 23.45 549.9025
80	98012 25 16 16 14 14 1 508.18610324416 508.18610324416 508.18610324416 258253.11553049
81	98037 15 16 16 14 14 1 17.25 17.25 17.25 297.5625
82	98052 25 16 16 14 14 1 493.11965332333 493.11965332333 493.11965332333 243166.99249372
83	98077 15 16 16 14 14 1 20.35 20.35 20.35 414.1225
84	98092 25 16 16 14 14 1 539.67781226835 539.67781226835 539.67781226835 291252.14105476
85	98117 15 16 16 14 14 1 17.25 17.25 17.25 297.5625
86	98132 24 16 16 14 14 1 530.8706462398 530.8706462398 530.8706462398 281823.64303907
87	98156 15 16 16 14 14 1 20.35 20.35 20.35 414.1225
90	98171 25 16 16 14 14 1 570.11150720646 570.11150720646 570.11150720646 325027.13064922
91	98196 15 16 16 14 14 1 17.25 17.25 17.25 297.5625
92	98211 25 16 16 14 14 1 555.09292734417 555.09292734417 555.09292734417 308128.15798752
93	98236 15 16 16 14 14 1 23.45 23.45 23.45 549.9025
94	98251 25 16 16 14 14 1 600.10361408671 600.10361408671 600.10361408671 360124.34763994
95	98276 15 16 16 14 14 1 17.25 17.25 17.25 297.5625
96	98291 25 16 16 14 14 1 588.99574541202 588.99574541202 588.99574541202 346915.98811346
97	98316 15 16 16 14 14 1 20.35 20.35 20.35 414.1225
98	98331 25 16 16 14 14 1 630.74762011038 630.74762011038 630.74762011038 397842.56027491
99	98356 15 16 16 14 14 1 17.25 17.25 17.25 297.5625
100	98371 26 16 16 14 14 1 621.02426614308 621.02426614308 621.02426614308 385671.13913855
101	98397 16 16 16 14 14 1 23.45 23.45 23.45 549.9025
102	98413 25 16 16 14 14 1 660.7423347525 660.7423347525 660.7423347525 436580.43293419
103	98438 16 16 16 14 14 1 17.25 17.25 17.25 297.5625
104	98454 26 16 16 14 14 1 654.51929558264 654.51929558264 654.51929558264 428395.50829
105	98480 16 16 16 14 14 1 20.35 20.35 20.35 414.1225
106	98496 26 16 16 14 14 1 692.57187832724 692.57187832724 692.57187832724 479655.80664972
107	98522 16 16 16 14 14 1 17.25 17.25 17.25 297.5625
108	98538 26 16 16 14 14 1 685.69829184353 685.69829184353 685.69829184353 470182.14743713
109	98564 16 16 16 14 14 1 23.45 23.45 23.45 549.9025
112	98580 26 16 16 14 14 1 722.50909857499 722.50909857499 722.50909857499 522019.39752365
113	98606 16 16 16 14 14 1 17.25 17.25 17.25 297.5625
114	98622 26 16 16 14 14 1 718.19177041326 718.19177041326 718.19177041326 515799.41908934
115	98648 16 16 16 14 14 1 20.35 20.35 20.35 414.1225
116	98664 26 16 16 14 14 1 754.12379283112 754.12379283112 754.12379283112 568702.694914
117	98690 16 16 16 14 14 1 17.25 17.25 17.25 297.5625
118	98706 25 16 16 14 14 1 753.1791490487 753.1791490487 753.1791490487 567278.83056172
119	98731 16 16 16 14 14 1 23.45 23.45 23.45 549.9025
120	98747 26 16 16 14 14 1 781.78512282087 781.78512282087 781.78512282087 611187.97826404
121	98773 16 16 16 14 14 1 20.35 20.35 20.35 414.1225
137	98789 26 16 16 14 14 1 28.788565049028 28.788565049028 28.788565049028 828.78147758214
138	98815 26 16 16 14 14 1 32.636187335338 32.636187335338 32.636187335338 1065.1207237873
140	98841 26 16 16 14 14 1 28.084620975992 28.084620975992 28.084620975992 788.74593536516
141	98867 26 16 16 14 14 1 26.857305318326 26.857305318326 26.857305318326 721.31484896177
142	98893 26 16 16 14 14 1 33.271322746153 33.271322746153 33.271322746153 1106.9809172787
143	98919 26 16 16 14 14 1 26.003992273045 26.003992273045 26.003992273045 676.20761413658
144	98945 26 16 16 14 14 1 27.420275748596 27.420275748596 27.420275748596 751.87152212906
145	98971 26 16 16 14 14 1 33.322552295018 33.322552295018 33.322552295018 1110.3924914542
146	98997 26 16 16 14 14 1 27.359366621774 27.359366621774 27.359366621774 748.53494194463
147	99023 26 16 16 14 14 1 33.273373226131 33.273373226131 33.273373226131 1107.1173658454
148	99049 26 16 16 14 14 1 28.611224753757 28.611224753757 28.611224753757 818.60218191001
149	99075 26 16 16 14 14 1 27.409423726667 27.409423726667 27.409423726667 751.27650902798
151	99101 26 16 16 14 14 1 32.219017698621 32.219017698621 32.219017698621 1038.0651014641
152	99127 26 16 16 14 14 1 26.740449979252 26.740449979252 26.740449979252 715.05166509287
153	99153 26 16 16 14 14 1 30.180059484578 30.180059484578 30.180059484578 910.83599049269
154	99179 26 16 16 14 14 1 26.242213832711 26.242213832711 26.242213832711 688.65378684171
155	99205 26 16 16 14 14 1 32.504291266135 32.504291266135 32.504291266135 1056.5289507138
156	99231 26 16 16 14 14 1 25.573885650864 25.573885650864 25.573885650864 654.02362728346
157	99257 25 16 16 14 14 1 24.89140748851 24.89140748851 24.89140748851 619.58216675908
158	99282 26 16 16 14 14 1 32.425979973101 32.425979973101 32.425979973101 1051.444177216
159	99308 26 16 16 14 14 1 24.284747813544 24.284747813544 24.284747813544 589.74897636745
160	99334 26 16 16 14 14 1 30.365576043298 30.365576043298 30.365576043298 922.06820844129
162	99360 26 16 16 14 14 1 33.217305513013 33.217305513013 33.217305513013 1103.3893855448
163	99386 25 16 16 14 14 1 25.35995648688 25.35995648688 25.35995648688 643.12739301644
164	99411 26 16 16 14 14 1 24.478148004183 24.478148004183 24.478148004183 599.17972971469
165	99437 26 16 16 14 14 1 31.100413131959 31.100413131959 31.100413131959 967.23569697855
166	99463 26 16 16 14 14 1 23.873327194017 23.873327194017 23.873327194017 569.93575131258
167	99489 26 16 16 14 14 1 32.146545987339 32.146545987339 32.146545987339 1033.4004189161
168	99515 26 16 16 14 14 1 23.515448066842 23.515448066842 23.515448066842 552.97629778432
169	99541 26 16 16 14 14 1 31.550116482068 31.550116482068 31.550116482068 995.40985003204
170	99567 26 16 16 14 14 1 23.497650746027 23.497650746027 23.497650746027 552.13959058228
171	99593 26 16 16 14 14 1 30.990486515448 30.990486515448 30.990486515448 960.41025446415
173	99619 26 16 16 14 14 1 23.183157174283 23.183157174283 23.183157174283 537.4587765675
174	99645 26 16 16 14 14 1 32.365422512494 32.365422512494 32.365422512494 1047.5205744123
175	99671 26 16 16 14 14 1 22.940251815511 22.940251815511 22.940251815511 526.25515335905
176	99697 26 16 16 14 14 1 31.842673328296 31.842673328296 31.842673328296 1013.9558446925
177	99723 26 16 16 14 14 1 22.925166189647 22.925166189647 22.925166189647 525.56324482295
178	99749 24 16 16 14 14 1 31.4642207832 31.4642207832 31.4642207832 989.99718949397
179	99773 26 16 16 14 14 1 22.765428434346 22.765428434346 22.765428434346 518.26473179931
180	99799 25 16 16 14 14 1 31.42514013282 31.42514013282 31.42514013282 987.53943236736
181	99824 26 16 16 14 14 1 22.928835535934 22.928835535934 22.928835535934 525.73149903392
182	99850 25 16 16 14 14 1 31.25230786162 31.25230786162 31.25230786162 976.70674667744
184	99875 26 16 16 14 14 1 22.718213777577 22.718213777577 22.718213777577 516.1172372437
185	99901 26 16 16 14 14 1 30.991930345404 30.991930345404 30.991930345404 960.49974653436
186	99927 26 16 16 14 14 1 22.973169296231 22.973169296231 22.973169296231 527.76650751328
187	99953 26 16 16 14 14 1 30.650370044741 30.650370044741 30.650370044741 939.44518387958
188	99979 26 16 16 14 14 1 26.425303665648 26.425303665648 26.425303665648 698.29667382171
208	100005 26 16 16 14 14 1 1.9579100973611 1.9579100973611 1.9579100973611 3.8334119493486
209	100031 26 16 16 14 14 1 18.286934500381 18.286934500381 18.286934500381 334.41197342123
210	100057 26 16 16 14 14 1 1.6795587809896 1.6795587809896 1.6795587809896 2.8209176987993
211	100083 26 16 16 14 14 1 19.105865417336 19.105865417336 19.105865417336 365.03409334537
214	100109 26 16 16 14 14 1 1.6573800780998 1.6573800780998 1.6573800780998 2.7469087232822
215	100135 26 16 16 14 14 1 15.728945749568 15.728945749568 15.728945749568 247.39973439286
216	100161 26 16 16 14 14 1 1.4833134426657 1.4833134426657 1.4833134426657 2.2002187691928
217	100187 26 16 16 14 14 1 13.796123301951 13.796123301951 13.796123301951 190.33301816263
218	100213 26 16 16 14 14 1 1.5599772895835 1.5599772895835 1.5599772895835 2.4335291440164
219	100239 26 16 16 14 14 1 18.625893613206 18.625893613206 18.625893613206 346.92391289047
220	100265 26 16 16 14 14 1 1.5055197347344 1.5055197347344 1.5055197347344 2.2665896716747
221	100291 26 16 16 14 14 1 13.423867002151 13.423867002151 13.423867002151 180.20020529145
222	100317 26 16 16 14 14 1 1.7439264711575 1.7439264711575 1.7439264711575 3.0412795368038
223	100343 24 16 16 14 14 1 15.8616512202 15.8616512202 15.8616512202 251.59197943128
224	100367 26 16 16 14 14 1 1.6374915304805 1.6374915304805 1.6374915304805 2.6813785123953
225	100393 26 16 16 14 14 1 19.285861910364 19.285861910364 19.285861910364 371.94446962563
226	100419 26 16 16 14 14 1 1.7973039477378 1.7973039477378 1.7973039477378 3.2303014805538
227	100445 26 16 16 14 14 1 16.172400282621 16.172400282621 16.172400282621 261.54653090133
228	100471 26 16 16 14 14 1 1.9365130236652 1.9365130236652 1.9365130236652 3.7500826908248
229	100497 26 16 16 14 14 1 21.646788487952 21.646788487952 21.646788487952 468.58345184214
230	100523 26 16 16 14 14 1 1.1701975266403 1.1701975266403 1.1701975266403 1.369362251355
231	100549 26 16 16 14 14 1 12.722699773799 12.722699773799 12.722699773799 161.86708953422
232	100575 26 16 16 14 14 1 1.3518758312482 1.3518758312482 1.3518758312482 1.8275682631131
233	100601 26 16 16 14 14 1 13.264548820396 13.264548820396 13.264548820396 175.94825540867
236	100627 26 16 16 14 14 1 1.9729655664065 1.9729655664065 1.9729655664065 3.8925931262258
237	100653 26 16 16 14 14 1 21.073547519092 21.073547519092 21.073547519092 444.09440503943
238	100679 26 16 16 14 14 1 1.2409788401458 1.2409788401458 1.2409788401458 1.5400284816895
239	100705 26 16 16 14 14 1 12.163741855638 12.163741855638 12.163741855638 147.95661593059
240	100731 27 16 16 14 14 1 0.82438614196656 0.82438614196656 0.82438614196656 0.67961251106651
241	100758 26 16 16 14 14 1 11.101382391688 11.101382391688 11.101382391688 123.24069100648
242	100784 26 16 16 14 14 1 1.2647351655903 1.2647351655903 1.2647351655903 1.5995550390808
243	100810 26 16 16 14 14 1 12.044034640879 12.044034640879 12.044034640879 145.05877043068
244	100836 26 16 16 14 14 1 1.9792919739569 1.9792919739569 1.9792919739569 3.9175967181701
245	100862 26 16 16 14 14 1 21.355308440054 21.355308440054 21.355308440054 456.04919856984
246	100888 26 16 16 14 14 1 1.0322189989448 1.0322189989448 1.0322189989448 1.0654760617826
247	100914 26 16 16 14 14 1 10.250688510094 10.250688510094 10.250688510094 105.07661493097
248	100940 26 16 16 14 14 1 1.2371559364579 1.2371559364579 1.2371559364579 1.530554811113
249	100966 26 16 16 14 14 1 11.156940891219 11.156940891219 11.156940891219 124.47733005017
250	100992 26 16 16 14 14 1 2.0056710654031 2.0056710654031 2.0056710654031 4.0227164225954
251	101018 25 16 16 14 14 1 21.49744457179 21.49744457179 21.49744457179 462.14012311717
252	101043 26 16 16 14 14 1 1.1605642268307 1.1605642268307 1.1605642268307 1.3469093245991
253	101069 26 16 16 14 14 1 10.396884099448 10.396884099448 10.396884099448 108.09519897735
254	101095 26 16 16 14 14 1 2.0363572289981 2.0363572289981 2.0363572289981 4.1467507640929
255	101121 26 16 16 14 14 1 20.063637500743 20.063637500743 20.063637500743 402.5495497612
258	101147 26 16 16 14 14 1 1.8343844783492 1.8343844783492 1.8343844783492 3.3649664144086
259	101173 26 16 16 14 14 1 20.783166262605 20.783166262605 20.783166262605 431.93999989908
260	101199 27 16 16 14 14 1 0.64839693634677 0.64839693634677 0.64839693634677 0.42041858706387
261	101226 25 16 16 14 14 1 7.802874182299 7.802874182299 7.802874182299 60.884845504789
262	101251 27 16 16 14 14 1 0.67352069153335 0.67352069153335 0.67352069153335 0.45363012192356
263	101278 26 16 16 14 14 1 7.6189852906674 7.6189852906674 7.6189852906674 58.048936859406
264	101304 26 16 16 14 14 1 1.6248222577721 1.6248222577721 1.6248222577721 2.6400473693516
265	101330 26 16 16 14 14 1 17.567539799957 17.567539799957 17.567539799957 308.61845462308
266	101356 27 16 16 14 14 1 0.71434323581658 0.71434323581658 0.71434323581658 0.5102862585569
267	101383 26 16 16 14 14 1 7.6285343115332 7.6285343115332 7.6285343115332 58.19453574224
268	101409 26 16 16 14 14 1 1.8536861712858 1.8536861712858 1.8536861712858 3.4361524216163
269	101435 26 16 16 14 14 1 20.090694712652 20.090694712652 20.090694712652 403.636014037
270	101461 27 16 16 14 14 1 0.53565227332033 0.53565227332033 0.53565227332033 0.28692335791324
271	101488 25 16 16 14 14 1 6.481293508121 6.481293508121 6.481293508121 42.007165538411
272	101513 26 16 16 14 14 1 2.0769485055003 2.0769485055003 2.0769485055003 4.3137150945001
273	101539 26 16 16 14 14 1 21.325403869244 21.325403869244 21.325403869244 454.77285018637
274	101565 27 16 16 14 14 1 0.47098391216315 0.47098391216315 0.47098391216315 0.2218258455165
275	101592 26 16 16 14 14 1 6.1091994443988 6.1091994443988 6.1091994443988 37.322317851443
276	101618 26 16 16 14 14 1 1.7460616844171 1.7460616844171 1.7460616844171 3.0487314057894
277	101644 26 16 16 14 14 1 18.395330912537 18.395330912537 18.395330912537 338.38819938173
280	101670 26 16 16 14 14 1 0.3902691791882 0.3902691791882 0.3902691791882 0.15231003222423
281	101696 26 16 16 14 14 1 5.5598844272964 5.5598844272964 5.5598844272964 30.912314844893
282	101722 26 16 16 14 14 1 2.1783664641949 2.1783664641949 2.1783664641949 4.7452804523288
283	101748 26 16 16 14 14 1 22.794674341076 22.794674341076 22.794674341076 519.59717831569
284	101774 27 16 16 14 14 1 0.27124595211366 0.27124595211366 0.27124595211366 0.073574366538044
285	101801 26 16 16 14 14 1 4.8314854734197 4.8314854734197 4.8314854734197 23.343251879865
286	101827 26 16 16 14 14 1 2.0264130385802 2.0264130385802 2.0264130385802 4.106349802928
287	101853 25 16 16 14 14 1 21.17959786796 21.17959786796 21.17959786796 448.57536584848
288	101878 27 16 16 14 14 1 0.32518527297976 0.32518527297976 0.32518527297976 0.10574546176292
289	101905 26 16 16 14 14 1 5.1255857436967 5.1255857436967 5.1255857436967 26.271629215987
290	101931 26 16 16 14 14 1 1.7694589165831 1.7694589165831 1.7694589165831 3.1309848574755
291	101957 26 16 16 14 14 1 18.922978713126 18.922978713126 18.922978713126 358.07912337743
292	101983 27 16 16 14 14 1 0.35084711145076 0.35084711145076 0.35084711145076 0.12309369561334
293	102010 26 16 16 14 14 1 5.2230497458292 5.2230497458292 5.2230497458292 27.280248647407
294	102036 25 16 16 14 14 1 1.763645200165 1.763645200165 1.763645200165 3.1104443920652
295	102061 26 16 16 14 14 1 18.849688953528 18.849688953528 18.849688953528 355.31077364475
296	102087 27 16 16 14 14 1 0.16616079812386 0.16616079812386 0.16616079812386 0.027609410833158
297	102114 26 16 16 14 14 1 4.2478395613052 4.2478395613052 4.2478395613052 18.044140938589
298	102140 26 16 16 14 14 1 2.0558921589959 2.0558921589959 2.0558921589959 4.2266925694207
299	102166 26 16 16 14 14 1 20.921996966085 20.921996966085 20.921996966085 437.72995704887
302	102192 28 16 16 14 14 1 0.056281645511785 0.056281645511785 0.056281645511785 0.0031676236215142
303	102220 26 16 16 14 14 1 3.5972402264863 3.5972402264863 3.5972402264863 12.940137247051
304	102246 26 16 16 14 14 1 2.1596357050957 2.1596357050957 2.1596357050957 4.6640263787243
305	102272 26 16 16 14 14 1 21.485399637719 21.485399637719 21.485399637719 461.62239759252
306	102298 27 16 16 14 14 1 0.10602745834922 0.10602745834922 0.10602745834922 0.011241821923997
307	102325 26 16 16 14 14 1 3.9252951906989 3.9252951906989 3.9252951906989 15.407942334124
308	102351 26 16 16 14 14 1 1.8881511829212 1.8881511829212 1.8881511829212 3.5651148895666
309	102377 26 16 16 14 14 1 19.195843285663 19.195843285663 19.195843285663 368.48039944773
310	102403 26 16 16 14 14 1 1.9220281804353 1.9220281804353 1.9220281804353 3.6941923263875
311	102429 25 16 16 14 14 1 16.32982953623 16.32982953623 16.32982953623 266.66333268232

