version 2
run Default-0-20210727-13:59:43-10207
attr configname Default
attr datetime 20210727-13:59:43
attr experiment Default
attr inifile highway.ini
attr iterationvars ""
attr iterationvarsf ""
attr measurement ""
attr network StopScenario
attr processid 10207
attr repetition 0
attr replication #0
attr resultdir results
attr runnumber 0
attr seedset 0
param *.playgroundSizeX 2500m
param *.playgroundSizeY 2500m
param *.playgroundSizeZ 50m
param *.annotations.draw true
param *.obstacles.obstacles "xmldoc(\"config.xml\", \"//AnalogueModel[@type='SimpleObstacleShadowing']/obstacles\")"
param *.manager.updateInterval 1s
param *.manager.host "\"localhost\""
param *.manager.port 9999
param *.manager.autoShutdown true
param *.manager.launchConfig "xmldoc(\"highway.launchd.xml\")"
param *.connectionManager.sendDirect true
param *.connectionManager.maxInterfDist 2600m
param *.connectionManager.drawMaxIntfDist false
param *.**.nic.mac1609_4.useServiceChannel false
param *.**.nic.mac1609_4.txPower 20mW
param *.**.nic.mac1609_4.bitrate 6Mbps
param *.**.nic.phy80211p.minPowerLevel -110dBm
param *.**.nic.phy80211p.useNoiseFloor true
param *.**.nic.phy80211p.noiseFloor -98dBm
param *.**.nic.phy80211p.decider "xmldoc(\"config.xml\")"
param *.**.nic.phy80211p.analogueModels "xmldoc(\"config.xml\")"
param *.**.nic.phy80211p.usePropagationDelay true
param *.**.nic.phy80211p.antenna "xmldoc(\"antenna.xml\", \"/root/Antenna[@id='monopole']\")"
param *.node[*].nic.phy80211p.antennaOffsetY "0 m"
param *.node[*].nic.phy80211p.antennaOffsetZ "1.895 m"
param *.node[*].applType "\"FloodingApp\""
param *.node[*].appl.headerLength "80 bit"
param *.node[*].appl.sendBeacons false
param *.node[*].appl.dataOnSch false
param *.node[*].appl.beaconInterval 1s
param *.node[*].veinsmobility.x 0
param *.node[*].veinsmobility.y 0
param *.node[*].veinsmobility.z 0
param *.node[*].veinsmobility.setHostSpeed false
param *.node[0].veinsmobility.accidentCount 1
param *.node[0].veinsmobility.accidentStart 1s
param *.node[0].veinsmobility.accidentDuration 10s

vector 0 StopScenario.node[0].veinsmobility posx ETV
vector 1 StopScenario.node[0].veinsmobility posy ETV
vector 2 StopScenario.node[1].veinsmobility posx ETV
vector 3 StopScenario.node[1].veinsmobility posy ETV
vector 4 StopScenario.node[2].veinsmobility posx ETV
vector 5 StopScenario.node[2].veinsmobility posy ETV
vector 6 StopScenario.node[3].veinsmobility posx ETV
vector 7 StopScenario.node[3].veinsmobility posy ETV
vector 8 StopScenario.node[4].veinsmobility posx ETV
vector 9 StopScenario.node[4].veinsmobility posy ETV
vector 10 StopScenario.node[5].veinsmobility posx ETV
vector 11 StopScenario.node[5].veinsmobility posy ETV
vector 12 StopScenario.node[6].veinsmobility posx ETV
vector 13 StopScenario.node[6].veinsmobility posy ETV
vector 14 StopScenario.node[7].veinsmobility posx ETV
vector 15 StopScenario.node[7].veinsmobility posy ETV
vector 16 StopScenario.node[8].veinsmobility posx ETV
vector 17 StopScenario.node[8].veinsmobility posy ETV
vector 18 StopScenario.node[9].veinsmobility posx ETV
vector 19 StopScenario.node[9].veinsmobility posy ETV
vector 20 StopScenario.node[10].veinsmobility posx ETV
vector 21 StopScenario.node[10].veinsmobility posy ETV
vector 22 StopScenario.node[11].veinsmobility posx ETV
vector 23 StopScenario.node[11].veinsmobility posy ETV
vector 24 StopScenario.node[12].veinsmobility posx ETV
vector 25 StopScenario.node[12].veinsmobility posy ETV
vector 26 StopScenario.node[13].veinsmobility posx ETV
vector 27 StopScenario.node[13].veinsmobility posy ETV
vector 28 StopScenario.node[14].veinsmobility posx ETV
vector 29 StopScenario.node[14].veinsmobility posy ETV
vector 30 StopScenario.node[15].veinsmobility posx ETV
vector 31 StopScenario.node[15].veinsmobility posy ETV
vector 32 StopScenario.node[16].veinsmobility posx ETV
vector 33 StopScenario.node[16].veinsmobility posy ETV
vector 34 StopScenario.node[17].veinsmobility posx ETV
vector 35 StopScenario.node[17].veinsmobility posy ETV
vector 36 StopScenario.node[18].veinsmobility posx ETV
vector 37 StopScenario.node[18].veinsmobility posy ETV
vector 38 StopScenario.node[19].veinsmobility posx ETV
vector 39 StopScenario.node[19].veinsmobility posy ETV
vector 40 StopScenario.node[20].veinsmobility posx ETV
vector 41 StopScenario.node[20].veinsmobility posy ETV
vector 42 StopScenario.node[21].veinsmobility posx ETV
vector 43 StopScenario.node[21].veinsmobility posy ETV
vector 44 StopScenario.node[22].veinsmobility posx ETV
vector 45 StopScenario.node[22].veinsmobility posy ETV
vector 46 StopScenario.node[23].veinsmobility posx ETV
vector 47 StopScenario.node[23].veinsmobility posy ETV
vector 48 StopScenario.node[24].veinsmobility posx ETV
vector 49 StopScenario.node[24].veinsmobility posy ETV
vector 50 StopScenario.node[25].veinsmobility posx ETV
vector 51 StopScenario.node[25].veinsmobility posy ETV
vector 52 StopScenario.node[26].veinsmobility posx ETV
vector 53 StopScenario.node[26].veinsmobility posy ETV
vector 54 StopScenario.node[27].veinsmobility posx ETV
vector 55 StopScenario.node[27].veinsmobility posy ETV
vector 56 StopScenario.node[28].veinsmobility posx ETV
vector 57 StopScenario.node[28].veinsmobility posy ETV
vector 58 StopScenario.node[29].veinsmobility posx ETV
vector 59 StopScenario.node[29].veinsmobility posy ETV
vector 60 StopScenario.node[30].veinsmobility posx ETV
vector 61 StopScenario.node[30].veinsmobility posy ETV
vector 62 StopScenario.node[31].veinsmobility posx ETV
vector 63 StopScenario.node[31].veinsmobility posy ETV
vector 64 StopScenario.node[32].veinsmobility posx ETV
vector 65 StopScenario.node[32].veinsmobility posy ETV
vector 66 StopScenario.node[33].veinsmobility posx ETV
vector 67 StopScenario.node[33].veinsmobility posy ETV
vector 68 StopScenario.node[34].veinsmobility posx ETV
vector 69 StopScenario.node[34].veinsmobility posy ETV
vector 70 StopScenario.node[35].veinsmobility posx ETV
vector 71 StopScenario.node[35].veinsmobility posy ETV
vector 72 StopScenario.node[36].veinsmobility posx ETV
vector 73 StopScenario.node[36].veinsmobility posy ETV
vector 74 StopScenario.node[37].veinsmobility posx ETV
vector 75 StopScenario.node[37].veinsmobility posy ETV
vector 76 StopScenario.node[38].veinsmobility posx ETV
vector 77 StopScenario.node[38].veinsmobility posy ETV
vector 78 StopScenario.node[39].veinsmobility posx ETV
vector 79 StopScenario.node[39].veinsmobility posy ETV
vector 80 StopScenario.node[40].veinsmobility posx ETV
vector 81 StopScenario.node[40].veinsmobility posy ETV
vector 82 StopScenario.node[41].veinsmobility posx ETV
vector 83 StopScenario.node[41].veinsmobility posy ETV
vector 84 StopScenario.node[42].veinsmobility posx ETV
vector 85 StopScenario.node[42].veinsmobility posy ETV
vector 86 StopScenario.node[43].veinsmobility posx ETV
vector 87 StopScenario.node[43].veinsmobility posy ETV
vector 88 StopScenario.node[44].veinsmobility posx ETV
vector 89 StopScenario.node[44].veinsmobility posy ETV
vector 90 StopScenario.node[45].veinsmobility posx ETV
vector 91 StopScenario.node[45].veinsmobility posy ETV
vector 92 StopScenario.node[46].veinsmobility posx ETV
vector 93 StopScenario.node[46].veinsmobility posy ETV
vector 94 StopScenario.node[47].veinsmobility posx ETV
vector 95 StopScenario.node[47].veinsmobility posy ETV
vector 96 StopScenario.node[48].veinsmobility posx ETV
vector 97 StopScenario.node[48].veinsmobility posy ETV
vector 98 StopScenario.node[49].veinsmobility posx ETV
vector 99 StopScenario.node[49].veinsmobility posy ETV
vector 100 StopScenario.node[50].veinsmobility posx ETV
vector 101 StopScenario.node[50].veinsmobility posy ETV
vector 102 StopScenario.node[51].veinsmobility posx ETV
vector 103 StopScenario.node[51].veinsmobility posy ETV
vector 104 StopScenario.node[52].veinsmobility posx ETV
vector 105 StopScenario.node[52].veinsmobility posy ETV
vector 106 StopScenario.node[53].veinsmobility posx ETV
vector 107 StopScenario.node[53].veinsmobility posy ETV
vector 108 StopScenario.node[54].veinsmobility posx ETV
vector 109 StopScenario.node[54].veinsmobility posy ETV
vector 110 StopScenario.node[55].veinsmobility posx ETV
vector 111 StopScenario.node[55].veinsmobility posy ETV
vector 112 StopScenario.node[56].veinsmobility posx ETV
vector 113 StopScenario.node[56].veinsmobility posy ETV
vector 114 StopScenario.node[57].veinsmobility posx ETV
vector 115 StopScenario.node[57].veinsmobility posy ETV
vector 116 StopScenario.node[58].veinsmobility posx ETV
vector 117 StopScenario.node[58].veinsmobility posy ETV
vector 118 StopScenario.node[59].veinsmobility posx ETV
vector 119 StopScenario.node[59].veinsmobility posy ETV
vector 120 StopScenario.node[60].veinsmobility posx ETV
vector 121 StopScenario.node[60].veinsmobility posy ETV
vector 122 StopScenario.node[61].veinsmobility posx ETV
vector 123 StopScenario.node[61].veinsmobility posy ETV
vector 124 StopScenario.node[62].veinsmobility posx ETV
vector 125 StopScenario.node[62].veinsmobility posy ETV
vector 126 StopScenario.node[63].veinsmobility posx ETV
vector 127 StopScenario.node[63].veinsmobility posy ETV
0	2	1	32.846147544902
1	2	1	17.25
2	2	1	172.87380117974
3	2	1	20.35
4	2	1	188.33913808997
5	2	1	17.25
6	2	1	203.89926989592
7	2	1	17.25
8	2	1	219.11094026947
9	2	1	20.35
10	2	1	234.58821207924
11	2	1	17.25
12	2	1	250.26011297449
13	2	1	20.35
14	2	1	265.84064044005
15	2	1	17.25
16	2	1	281.35434175658
17	2	1	20.35
18	2	1	296.81235732921
19	2	1	17.25
20	2	1	312.35367439167
21	2	1	20.35
22	2	1	48.666104139486
23	2	1	20.35
24	2	1	327.9536022102
25	2	1	17.25
26	2	1	343.44587619735
27	2	1	17.25
28	2	1	358.91890893418
29	2	1	20.35
30	2	1	374.38968078871
31	2	1	17.25
32	2	1	389.91878999513
33	2	1	17.25
34	2	1	405.38735804199
35	2	1	20.35
36	2	1	420.87974568589
37	2	1	17.25
38	2	1	436.41679376955
39	2	1	17.25
40	2	1	451.89635718555
41	2	1	17.25
42	2	1	467.36234075195
43	2	1	17.25
44	2	1	64.33621685823
45	2	1	17.25
46	2	1	482.85037617444
47	2	1	17.25
48	2	1	498.34752134019
49	2	1	17.25
50	2	1	513.83658520181
51	2	1	17.25
52	2	1	529.33011805724
53	2	1	17.25
54	2	1	544.86731467827
55	2	1	17.25
56	2	1	560.36760282936
57	2	1	17.25
58	2	1	575.85002514275
59	2	1	17.25
60	2	1	591.33613082639
61	2	1	17.25
62	2	1	606.8050788224
63	2	1	17.25
64	2	1	622.30564439284
65	2	1	17.25
66	2	1	79.711925792091
67	2	1	20.35
68	2	1	637.9127169252
69	2	1	17.25
70	2	1	653.40078566787
71	2	1	17.25
72	2	1	668.88498649213
73	2	1	17.25
74	2	1	684.35819702087
75	2	1	17.25
76	2	1	699.83751779541
77	2	1	17.25
78	2	1	715.33160101674
79	2	1	17.25
80	2	1	730.8169761991
81	2	1	17.25
82	2	1	746.38307495424
83	2	1	17.25
84	2	1	761.86573900852
85	2	1	17.25
86	2	1	777.35849998076
87	2	1	17.25
88	2	1	95.212550539829
89	2	1	17.25
90	2	1	792.85561831828
91	2	1	17.25
92	2	1	808.33330016784
93	2	1	17.25
94	2	1	823.80876786553
95	2	1	17.25
96	2	1	839.30038110679
97	2	1	17.25
98	2	1	854.78619154823
99	2	1	17.25
100	2	1	870.27336080712
101	2	1	17.25
102	2	1	885.75503329576
103	2	1	17.25
104	2	1	901.23551320503
105	2	1	17.25
106	2	1	916.72050465361
107	2	1	17.25
108	2	1	932.21616352947
109	2	1	17.25
110	2	1	110.67348536512
111	2	1	20.35
112	2	1	947.84203585361
113	2	1	17.25
114	2	1	963.32703585361
115	2	1	17.25
116	2	1	978.81203585361
117	2	1	17.25
118	2	1	994.29703585361
119	2	1	17.25
120	2	1	1009.7820358536
121	2	1	17.25
122	2	1	126.23446244855
123	2	1	17.25
124	2	1	141.83154080873
125	2	1	20.35
126	2	1	157.34561424075
127	2	1	17.25
vector 128 StopScenario.node[0].veinsmobility speed ETV
vector 129 StopScenario.node[1].veinsmobility speed ETV
vector 130 StopScenario.node[2].veinsmobility speed ETV
vector 131 StopScenario.node[3].veinsmobility speed ETV
vector 132 StopScenario.node[4].veinsmobility speed ETV
vector 133 StopScenario.node[5].veinsmobility speed ETV
vector 134 StopScenario.node[6].veinsmobility speed ETV
vector 135 StopScenario.node[7].veinsmobility speed ETV
vector 136 StopScenario.node[8].veinsmobility speed ETV
vector 137 StopScenario.node[9].veinsmobility speed ETV
vector 138 StopScenario.node[10].veinsmobility speed ETV
vector 139 StopScenario.node[11].veinsmobility speed ETV
vector 140 StopScenario.node[12].veinsmobility speed ETV
vector 141 StopScenario.node[13].veinsmobility speed ETV
vector 142 StopScenario.node[14].veinsmobility speed ETV
vector 143 StopScenario.node[15].veinsmobility speed ETV
vector 144 StopScenario.node[16].veinsmobility speed ETV
vector 145 StopScenario.node[17].veinsmobility speed ETV
vector 146 StopScenario.node[18].veinsmobility speed ETV
vector 147 StopScenario.node[19].veinsmobility speed ETV
vector 148 StopScenario.node[20].veinsmobility speed ETV
vector 149 StopScenario.node[21].veinsmobility speed ETV
vector 150 StopScenario.node[22].veinsmobility speed ETV
vector 151 StopScenario.node[23].veinsmobility speed ETV
vector 152 StopScenario.node[24].veinsmobility speed ETV
vector 153 StopScenario.node[25].veinsmobility speed ETV
vector 154 StopScenario.node[26].veinsmobility speed ETV
vector 155 StopScenario.node[27].veinsmobility speed ETV
vector 156 StopScenario.node[28].veinsmobility speed ETV
vector 157 StopScenario.node[29].veinsmobility speed ETV
vector 158 StopScenario.node[30].veinsmobility speed ETV
vector 159 StopScenario.node[31].veinsmobility speed ETV
vector 160 StopScenario.node[32].veinsmobility speed ETV
vector 161 StopScenario.node[33].veinsmobility speed ETV
vector 162 StopScenario.node[34].veinsmobility speed ETV
vector 163 StopScenario.node[35].veinsmobility speed ETV
vector 164 StopScenario.node[36].veinsmobility speed ETV
vector 165 StopScenario.node[37].veinsmobility speed ETV
vector 166 StopScenario.node[38].veinsmobility speed ETV
vector 167 StopScenario.node[39].veinsmobility speed ETV
vector 168 StopScenario.node[40].veinsmobility speed ETV
vector 169 StopScenario.node[41].veinsmobility speed ETV
vector 170 StopScenario.node[42].veinsmobility speed ETV
vector 171 StopScenario.node[43].veinsmobility speed ETV
vector 172 StopScenario.node[44].veinsmobility speed ETV
vector 173 StopScenario.node[45].veinsmobility speed ETV
vector 174 StopScenario.node[46].veinsmobility speed ETV
vector 175 StopScenario.node[47].veinsmobility speed ETV
vector 176 StopScenario.node[48].veinsmobility speed ETV
vector 177 StopScenario.node[49].veinsmobility speed ETV
vector 178 StopScenario.node[50].veinsmobility speed ETV
vector 179 StopScenario.node[51].veinsmobility speed ETV
vector 180 StopScenario.node[52].veinsmobility speed ETV
vector 181 StopScenario.node[53].veinsmobility speed ETV
vector 182 StopScenario.node[54].veinsmobility speed ETV
vector 183 StopScenario.node[55].veinsmobility speed ETV
vector 184 StopScenario.node[56].veinsmobility speed ETV
vector 185 StopScenario.node[57].veinsmobility speed ETV
vector 186 StopScenario.node[58].veinsmobility speed ETV
vector 187 StopScenario.node[59].veinsmobility speed ETV
vector 188 StopScenario.node[60].veinsmobility speed ETV
vector 189 StopScenario.node[61].veinsmobility speed ETV
vector 190 StopScenario.node[62].veinsmobility speed ETV
vector 191 StopScenario.node[63].veinsmobility speed ETV
0	4	2	25.844875806295
1	4	2	17.25
2	4	2	163.51229496515
3	4	2	20.35
4	4	2	178.94047296491
5	4	2	17.25
6	4	2	195.0670870925
7	4	2	17.25
8	4	2	209.18634432203
9	4	2	20.35
10	4	2	224.58350975991
11	4	2	17.25
12	4	2	240.85426998438
13	4	2	20.35
14	4	2	256.5428549275
15	4	2	17.25
16	4	2	272.05614441274
17	4	2	20.35
18	4	2	287.46916686719
19	4	2	17.25
20	4	2	303.33931435801
21	4	2	20.35
22	4	2	38.809719899485
23	4	2	20.35
24	4	2	318.98224580812
25	4	2	17.25
26	4	2	334.91686815594
27	4	2	17.25
28	4	2	349.81507177791
29	4	2	20.35
30	4	2	365.17956367583
31	4	2	17.25
32	4	2	381.24103801587
33	4	2	17.25
34	4	2	396.30204247547
35	4	2	20.35
36	4	2	411.7752224058
37	4	2	17.25
38	4	2	427.70548164369
39	4	2	20.35
40	4	2	443.55175425441
41	4	2	20.35
42	4	2	458.7875699186
43	4	2	17.25
44	4	2	54.882137151026
45	4	2	17.25
46	4	2	474.37572596589
47	4	2	20.35
48	4	2	489.81735299701
49	4	2	17.25
50	4	2	505.31296343482
51	4	2	20.35
52	4	2	520.88692732994
53	4	2	17.25
54	4	2	536.52635172539
55	4	2	20.35
56	4	2	551.86817500519
57	4	2	17.25
58	4	2	567.66120684927
59	4	2	17.25
60	4	2	583.06100285115
61	4	2	20.35
62	4	2	598.43689805766
63	4	2	17.25
64	4	2	614.19163899893
65	4	2	17.25
66	4	2	69.951343359047
67	4	2	20.35
68	4	2	629.38343719161
69	4	2	20.35
70	4	2	644.97900653072
71	4	2	17.25
72	4	2	660.76781660067
73	4	2	17.25
74	4	2	676.21397480235
75	4	2	20.35
76	4	2	691.66848135822
77	4	2	17.25
78	4	2	707.14680387795
79	4	2	20.35
80	4	2	722.5995379831
81	4	2	17.25
82	4	2	738.27470378664
83	4	2	20.35
84	4	2	753.88407535408
85	4	2	17.25
86	4	2	769.44754353693
87	4	2	20.35
88	4	2	85.377551324954
89	4	2	17.25
90	4	2	784.89616806758
91	4	2	17.25
92	4	2	800.35825443222
93	4	2	20.35
94	4	2	815.88052678695
95	4	2	17.25
96	4	2	831.36895250124
97	4	2	20.35
98	4	2	846.84840622535
99	4	2	17.25
100	4	2	862.38562426845
101	4	2	20.35
102	4	2	877.83209009851
103	4	2	17.25
104	4	2	893.3635759912
105	4	2	20.35
106	4	2	908.85210525436
107	4	2	17.25
108	4	2	924.28191761649
109	4	2	20.35
110	4	2	100.79911656378
111	4	2	20.35
112	4	2	939.89615445698
113	4	2	17.25
114	4	2	955.47378501171
115	4	2	20.35
116	4	2	970.96483901576
117	4	2	17.25
118	4	2	986.46122184371
119	4	2	20.35
120	4	2	1001.9260547918
121	4	2	17.25
122	4	2	116.48630544964
123	4	2	17.25
124	4	2	132.28569682519
125	4	2	20.35
126	4	2	147.83795591515
127	4	2	17.25
128	4	2	4.9762717386071
129	4	2	10.219871215777
130	4	2	10.38407030279
131	4	2	9.5738318432438
132	4	2	10.807275840938
133	4	2	10.890818709173
134	4	2	10.234047648603
135	4	2	10.094258979159
136	4	2	10.292392036819
137	4	2	10.246798187108
138	4	2	9.9236041644553
139	4	2	10.706756367343
140	4	2	9.8705930155071
141	4	2	9.1751276528708
142	4	2	9.986373012286
143	4	2	10.034661180141
144	4	2	9.3298677907282
145	4	2	9.8946767302181
146	4	2	10.047528641031
147	4	2	9.5743508550586
148	4	2	8.9915768202196
149	4	2	9.4346411418463
150	4	2	10.259230704525
151	4	2	9.3271780610811
152	4	2	9.3468272739523
153	4	2	9.3397070686762
154	4	2	9.2929924783504
155	4	2	9.2406624485992
156	4	2	9.2832246371751
157	4	2	8.7505255642109
158	4	2	8.9701321695515
159	4	2	9.2498075042972
160	4	2	8.7246919777846
161	4	2	10.534009917036
162	4	2	9.4331581412323
163	4	2	9.3113548223315
164	4	2	8.7560174348471
165	4	2	8.8760937126405
166	4	2	8.9277612536438
167	4	2	8.9554274869549
168	4	2	9.0371841648473
169	4	2	8.7661806309281
170	4	2	8.484191548282
171	4	2	8.2688883598518
172	4	2	10.624007397221
173	4	2	8.373602865695
174	4	2	8.4968724545334
175	4	2	8.3856634453436
176	4	2	8.3207151381775
177	4	2	8.4072433228164
178	4	2	8.2759136759601
179	4	2	8.4148331288758
180	4	2	8.1919642755882
181	4	2	8.1963291909053
182	4	2	8.3845988227937
183	4	2	10.876210211486
184	4	2	8.3669935028122
185	4	2	8.0218084940373
186	4	2	8.033525454336
187	4	2	7.955493645133
188	4	2	8.0470671668426
189	4	2	10.607501118513
190	4	2	10.489101027895
191	4	2	10.426917911285
vector 192 StopScenario.node[1].veinsmobility acceleration ETV
vector 193 StopScenario.node[1].veinsmobility co2emission ETV
vector 194 StopScenario.node[2].veinsmobility acceleration ETV
vector 195 StopScenario.node[2].veinsmobility co2emission ETV
vector 196 StopScenario.node[3].veinsmobility acceleration ETV
vector 197 StopScenario.node[3].veinsmobility co2emission ETV
vector 198 StopScenario.node[4].veinsmobility acceleration ETV
vector 199 StopScenario.node[4].veinsmobility co2emission ETV
vector 200 StopScenario.node[5].veinsmobility acceleration ETV
vector 201 StopScenario.node[5].veinsmobility co2emission ETV
vector 202 StopScenario.node[6].veinsmobility acceleration ETV
vector 203 StopScenario.node[6].veinsmobility co2emission ETV
vector 204 StopScenario.node[7].veinsmobility acceleration ETV
vector 205 StopScenario.node[7].veinsmobility co2emission ETV
vector 206 StopScenario.node[8].veinsmobility acceleration ETV
vector 207 StopScenario.node[8].veinsmobility co2emission ETV
vector 208 StopScenario.node[9].veinsmobility acceleration ETV
vector 209 StopScenario.node[9].veinsmobility co2emission ETV
vector 210 StopScenario.node[10].veinsmobility acceleration ETV
vector 211 StopScenario.node[10].veinsmobility co2emission ETV
vector 212 StopScenario.node[11].veinsmobility acceleration ETV
vector 213 StopScenario.node[11].veinsmobility co2emission ETV
vector 214 StopScenario.node[12].veinsmobility acceleration ETV
vector 215 StopScenario.node[12].veinsmobility co2emission ETV
vector 216 StopScenario.node[13].veinsmobility acceleration ETV
vector 217 StopScenario.node[13].veinsmobility co2emission ETV
vector 218 StopScenario.node[14].veinsmobility acceleration ETV
vector 219 StopScenario.node[14].veinsmobility co2emission ETV
vector 220 StopScenario.node[15].veinsmobility acceleration ETV
vector 221 StopScenario.node[15].veinsmobility co2emission ETV
vector 222 StopScenario.node[16].veinsmobility acceleration ETV
vector 223 StopScenario.node[16].veinsmobility co2emission ETV
vector 224 StopScenario.node[17].veinsmobility acceleration ETV
vector 225 StopScenario.node[17].veinsmobility co2emission ETV
vector 226 StopScenario.node[18].veinsmobility acceleration ETV
vector 227 StopScenario.node[18].veinsmobility co2emission ETV
vector 228 StopScenario.node[19].veinsmobility acceleration ETV
vector 229 StopScenario.node[19].veinsmobility co2emission ETV
vector 230 StopScenario.node[20].veinsmobility acceleration ETV
vector 231 StopScenario.node[20].veinsmobility co2emission ETV
vector 232 StopScenario.node[21].veinsmobility acceleration ETV
vector 233 StopScenario.node[21].veinsmobility co2emission ETV
vector 234 StopScenario.node[22].veinsmobility acceleration ETV
vector 235 StopScenario.node[22].veinsmobility co2emission ETV
vector 236 StopScenario.node[23].veinsmobility acceleration ETV
vector 237 StopScenario.node[23].veinsmobility co2emission ETV
vector 238 StopScenario.node[24].veinsmobility acceleration ETV
vector 239 StopScenario.node[24].veinsmobility co2emission ETV
vector 240 StopScenario.node[25].veinsmobility acceleration ETV
vector 241 StopScenario.node[25].veinsmobility co2emission ETV
vector 242 StopScenario.node[26].veinsmobility acceleration ETV
vector 243 StopScenario.node[26].veinsmobility co2emission ETV
vector 244 StopScenario.node[27].veinsmobility acceleration ETV
vector 245 StopScenario.node[27].veinsmobility co2emission ETV
vector 246 StopScenario.node[28].veinsmobility acceleration ETV
vector 247 StopScenario.node[28].veinsmobility co2emission ETV
vector 248 StopScenario.node[29].veinsmobility acceleration ETV
vector 249 StopScenario.node[29].veinsmobility co2emission ETV
vector 250 StopScenario.node[30].veinsmobility acceleration ETV
vector 251 StopScenario.node[30].veinsmobility co2emission ETV
vector 252 StopScenario.node[31].veinsmobility acceleration ETV
vector 253 StopScenario.node[31].veinsmobility co2emission ETV
vector 254 StopScenario.node[32].veinsmobility acceleration ETV
vector 255 StopScenario.node[32].veinsmobility co2emission ETV
vector 256 StopScenario.node[33].veinsmobility acceleration ETV
vector 257 StopScenario.node[33].veinsmobility co2emission ETV
vector 258 StopScenario.node[34].veinsmobility acceleration ETV
vector 259 StopScenario.node[34].veinsmobility co2emission ETV
vector 260 StopScenario.node[35].veinsmobility acceleration ETV
vector 261 StopScenario.node[35].veinsmobility co2emission ETV
vector 262 StopScenario.node[36].veinsmobility acceleration ETV
vector 263 StopScenario.node[36].veinsmobility co2emission ETV
vector 264 StopScenario.node[37].veinsmobility acceleration ETV
vector 265 StopScenario.node[37].veinsmobility co2emission ETV
vector 266 StopScenario.node[38].veinsmobility acceleration ETV
vector 267 StopScenario.node[38].veinsmobility co2emission ETV
vector 268 StopScenario.node[39].veinsmobility acceleration ETV
vector 269 StopScenario.node[39].veinsmobility co2emission ETV
vector 270 StopScenario.node[40].veinsmobility acceleration ETV
vector 271 StopScenario.node[40].veinsmobility co2emission ETV
vector 272 StopScenario.node[41].veinsmobility acceleration ETV
vector 273 StopScenario.node[41].veinsmobility co2emission ETV
vector 274 StopScenario.node[42].veinsmobility acceleration ETV
vector 275 StopScenario.node[42].veinsmobility co2emission ETV
vector 276 StopScenario.node[43].veinsmobility acceleration ETV
vector 277 StopScenario.node[43].veinsmobility co2emission ETV
vector 278 StopScenario.node[44].veinsmobility acceleration ETV
vector 279 StopScenario.node[44].veinsmobility co2emission ETV
vector 280 StopScenario.node[45].veinsmobility acceleration ETV
vector 281 StopScenario.node[45].veinsmobility co2emission ETV
vector 282 StopScenario.node[46].veinsmobility acceleration ETV
vector 283 StopScenario.node[46].veinsmobility co2emission ETV
vector 284 StopScenario.node[47].veinsmobility acceleration ETV
vector 285 StopScenario.node[47].veinsmobility co2emission ETV
vector 286 StopScenario.node[48].veinsmobility acceleration ETV
vector 287 StopScenario.node[48].veinsmobility co2emission ETV
vector 288 StopScenario.node[49].veinsmobility acceleration ETV
vector 289 StopScenario.node[49].veinsmobility co2emission ETV
vector 290 StopScenario.node[50].veinsmobility acceleration ETV
vector 291 StopScenario.node[50].veinsmobility co2emission ETV
vector 292 StopScenario.node[51].veinsmobility acceleration ETV
vector 293 StopScenario.node[51].veinsmobility co2emission ETV
vector 294 StopScenario.node[52].veinsmobility acceleration ETV
vector 295 StopScenario.node[52].veinsmobility co2emission ETV
vector 296 StopScenario.node[53].veinsmobility acceleration ETV
vector 297 StopScenario.node[53].veinsmobility co2emission ETV
vector 298 StopScenario.node[54].veinsmobility acceleration ETV
vector 299 StopScenario.node[54].veinsmobility co2emission ETV
vector 300 StopScenario.node[55].veinsmobility acceleration ETV
vector 301 StopScenario.node[55].veinsmobility co2emission ETV
vector 302 StopScenario.node[56].veinsmobility acceleration ETV
vector 303 StopScenario.node[56].veinsmobility co2emission ETV
vector 304 StopScenario.node[57].veinsmobility acceleration ETV
vector 305 StopScenario.node[57].veinsmobility co2emission ETV
vector 306 StopScenario.node[58].veinsmobility acceleration ETV
vector 307 StopScenario.node[58].veinsmobility co2emission ETV
vector 308 StopScenario.node[59].veinsmobility acceleration ETV
vector 309 StopScenario.node[59].veinsmobility co2emission ETV
vector 310 StopScenario.node[60].veinsmobility acceleration ETV
vector 311 StopScenario.node[60].veinsmobility co2emission ETV
vector 312 StopScenario.node[61].veinsmobility acceleration ETV
vector 313 StopScenario.node[61].veinsmobility co2emission ETV
vector 314 StopScenario.node[62].veinsmobility acceleration ETV
vector 315 StopScenario.node[62].veinsmobility co2emission ETV
vector 316 StopScenario.node[63].veinsmobility acceleration ETV
vector 317 StopScenario.node[63].veinsmobility co2emission ETV
2	5	3	152.38022101375
3	5	3	20.35
4	5	3	167.50319637557
5	5	3	17.25
6	5	3	184.55659960868
7	5	3	17.25
8	5	3	197.2437489914
9	5	3	20.35
10	5	3	212.57649513613
11	5	3	17.25
12	5	3	229.48682061189
13	5	3	20.35
14	5	3	245.33820934008
15	5	3	17.25
16	5	3	260.7381469077
17	5	3	20.35
18	5	3	276.18327443945
19	5	3	17.25
20	5	3	292.22925420224
21	5	3	20.35
22	5	3	27.17049364073
23	5	3	20.35
24	5	3	308.10253220883
25	5	3	17.25
26	5	3	324.87542193535
27	5	3	17.25
28	5	3	338.79176711976
29	5	3	20.35
30	5	3	354.13134363014
31	5	3	17.25
32	5	3	371.02454728465
33	5	3	17.25
34	5	3	385.34725930368
35	5	3	20.35
36	5	3	400.73312264364
37	5	3	17.25
38	5	3	417.1073282092
39	5	3	20.35
40	5	3	433.77806228543
41	5	3	20.35
42	5	3	448.42497271988
43	5	3	17.25
44	5	3	43.586217171598
45	5	3	17.25
46	5	3	464.05606504617
47	5	3	20.35
48	5	3	479.3522733372
49	5	3	17.25
50	5	3	494.87180138838
51	5	3	20.35
52	5	3	510.53228702694
53	5	3	17.25
54	5	3	526.23978265243
55	5	3	20.35
56	5	3	541.50394793941
57	5	3	17.25
58	5	3	558.04253937269
59	5	3	17.25
60	5	3	572.90918778292
61	5	3	20.35
62	5	3	588.02851416072
63	5	3	17.25
64	5	3	604.57952247193
65	5	3	17.25
66	5	3	58.419126417616
67	5	3	20.35
68	5	3	618.75330122526
69	5	3	20.35
70	5	3	634.59970022244
71	5	3	17.25
72	5	3	651.13957390402
73	5	3	17.25
74	5	3	666.18433693594
75	5	3	20.35
76	5	3	681.69797112547
77	5	3	17.25
78	5	3	697.1767944962
79	5	3	20.35
80	5	3	712.52782525424
81	5	3	17.25
82	5	3	728.41406868487
83	5	3	20.35
84	5	3	744.42810247629
85	5	3	17.25
86	5	3	760.11711615422
87	5	3	20.35
88	5	3	73.741931381662
89	5	3	17.25
90	5	3	775.49486688176
91	5	3	17.25
92	5	3	790.85582804514
93	5	3	20.35
94	5	3	806.45146773397
95	5	3	17.25
96	5	3	821.9651238987
97	5	3	20.35
98	5	3	837.47341751745
99	5	3	17.25
100	5	3	853.08766348477
101	5	3	20.35
102	5	3	868.28159380803
103	5	3	17.25
104	5	3	884.1490876577
105	5	3	20.35
106	5	3	899.46727313747
107	5	3	17.25
108	5	3	914.83976565279
109	5	3	20.35
110	5	3	88.734605705669
111	5	3	20.35
112	5	3	930.36380174633
113	5	3	17.25
114	5	3	946.36348908479
115	5	3	20.35
116	5	3	961.9979197673
117	5	3	17.25
118	5	3	977.50494319186
119	5	3	20.35
120	5	3	992.81831816218
121	5	3	17.25
122	5	3	104.84723749404
123	5	3	17.25
124	5	3	120.64928552663
125	5	3	20.35
126	5	3	136.33756685075
127	5	3	17.25
129	5	3	12.03062424234
130	5	3	12.358480779439
131	5	3	11.228723003903
132	5	3	12.838560258935
133	5	3	12.896603759323
134	5	3	12.285601530884
135	5	3	12.105156145951
136	5	3	12.204285026355
137	5	3	12.247357769893
138	5	3	12.05500385468
139	5	3	12.479976343835
140	5	3	11.885022908167
141	5	3	10.867379971743
142	5	3	11.857528055933
143	5	3	11.926582871153
144	5	3	10.868577826357
145	5	3	11.859402410618
146	5	3	11.902033172786
147	5	3	11.532411127157
148	5	3	10.598993628496
149	5	3	11.25890558266
150	5	3	12.198541133802
151	5	3	11.086358686095
152	5	3	11.233572852271
153	5	3	11.336690938367
154	5	3	11.211705056091
155	5	3	11.124963305304
156	5	3	11.288270117202
157	5	3	10.369126285982
158	5	3	11.070814699042
159	5	3	11.361726535957
160	5	3	10.480034050802
161	5	3	12.355707735473
162	5	3	11.534879289462
163	5	3	11.244676502546
164	5	3	10.386096055465
165	5	3	10.914303933918
166	5	3	10.803219760437
167	5	3	10.853527296884
168	5	3	10.956342532418
169	5	3	10.706024662753
170	5	3	10.259439540701
171	5	3	10.189362948308
172	5	3	12.48912707687
173	5	3	10.1915418965
174	5	3	10.444554901855
175	5	3	10.344029127451
176	5	3	10.266999508393
177	5	3	10.165320011659
178	5	3	10.146311668423
179	5	3	10.445629714601
180	5	3	10.064341475007
181	5	3	10.330726649384
182	5	3	10.348987168211
183	5	3	12.969348384117
184	5	3	10.351949188095
185	5	3	9.9210183941934
186	5	3	9.8288802084296
187	5	3	9.8159480637363
188	5	3	9.9133523310638
189	5	3	12.564675807372
190	5	3	12.47284051799
191	5	3	12.338736833915
192	5	3	1.8107530265627
193	5	3	7.1012751932613
194	5	3	1.9744104766496
195	5	3	7.7611136371154
196	5	3	1.6548911606593
197	5	3	6.260798144041
198	5	3	2.0312844179966
199	5	3	8.2098037936122
200	5	3	2.00578505015
201	5	3	8.1644277226126
202	5	3	2.0515538822813
203	5	3	7.9482614520719
204	5	3	2.0108971667918
205	5	3	7.7242928878551
206	5	3	1.9118929895363
207	5	3	7.4899796925672
208	5	3	2.0005595827848
209	5	3	7.7753977145517
210	5	3	2.1313996902248
211	5	3	8.0456308305001
212	5	3	1.7732199764927
213	5	3	7.2248640202045
214	5	3	2.0144298926601
215	5	3	7.6083320113347
216	5	3	1.6922523188725
217	5	3	6.1848789814761
218	5	3	1.8711550436472
219	5	3	7.1831522672992
220	5	3	1.8919216910121
221	5	3	7.2800198051268
222	5	3	1.5387100356286
223	5	3	5.7832870128124
224	5	3	1.9647256804002
225	5	3	7.4515967026551
226	5	3	1.8545045317546
227	5	3	7.1593492313486
228	5	3	1.9580602720985
229	5	3	7.2500701163834
230	5	3	1.6074168082766
231	5	3	5.8372059650123
232	5	3	1.8242644408136
233	5	3	6.734926148757
234	5	3	1.9393104292778
235	5	3	7.5674221474878
236	5	3	1.7591806250135
237	5	3	6.470881622886
238	5	3	1.8867455783184
239	5	3	6.8908332906398
240	5	3	1.9969838696904
241	5	3	7.2475223380095
242	5	3	1.9187125777407
243	5	3	6.9654471889232
244	5	3	1.8843008567044
245	5	3	6.8258922362359
246	5	3	2.0050454800273
247	5	3	7.2420969870398
248	5	3	1.6186007217707
249	5	3	5.758015175489
250	5	3	2.1006825294904
251	5	3	7.3741627307857
252	5	3	2.1119190316601
253	5	3	7.5763854107135
254	5	3	1.7553420730179
255	5	3	6.1553348287012
256	5	3	1.8216978184367
257	5	3	7.3048066234189
258	5	3	2.1017211482301
259	5	3	7.650808597796
260	5	3	1.9333216802147
261	5	3	7.0230262336074
262	5	3	1.6300786206175
263	5	3	5.7946896397537
264	5	3	2.0382102212776
265	5	3	7.117811595196
266	5	3	1.8754585067928
267	5	3	6.6305209019264
268	5	3	1.8980998099293
269	5	3	6.7165436337772
270	5	3	1.9191583675705
271	5	3	6.8275285707999
272	5	3	1.9398440318252
273	5	3	6.7449103456872
274	5	3	1.7752479924192
275	5	3	6.0940173313941
276	5	3	1.9204745884566
277	5	3	6.4152491337485
278	5	3	1.8651196796494
279	5	3	7.5062182967122
280	5	3	1.8179390308051
281	5	3	6.1645815479975
282	5	3	1.9476824473217
283	5	3	6.6216852491479
284	5	3	1.9583656821074
285	5	3	6.5932723117415
286	5	3	1.9462843702151
287	5	3	6.5210404585034
288	5	3	1.7580766888428
289	5	3	6.004422028873
290	5	3	1.8703979924624
291	5	3	6.2695628786721
292	5	3	2.0307965857256
293	5	3	6.8315053664814
294	5	3	1.8723771994188
295	5	3	6.2311400330507
296	5	3	2.1343974584783
297	5	3	7.0242255408093
298	5	3	1.9643883454171
299	5	3	6.6110197679561
300	5	3	2.0931381726312
301	5	3	8.4795053463736
302	5	3	1.9849556852831
303	5	3	6.6639646770339
304	5	3	1.8992099001561
305	5	3	6.2197424014659
306	5	3	1.7953547540936
307	5	3	5.9246271541844
308	5	3	1.8604544186033
309	5	3	6.0720646369268
310	5	3	1.8662851642212
311	5	3	6.1369937332296
312	5	3	1.9571746888594
313	5	3	7.8258575840023
314	5	3	1.9837394900946
315	5	3	7.8539745795754
316	5	3	1.91181892263
317	5	3	7.5638075176703
2	6	4	139.35508977434
3	6	4	20.35
4	6	4	154.02115328985
5	6	4	17.25
6	6	4	172.26825385527
7	6	4	17.25
8	6	4	183.27287853674
9	6	4	20.35
10	6	4	198.7184230229
11	6	4	17.25
12	6	4	216.05707925728
13	6	4	20.35
14	6	4	232.25396201983
15	6	4	17.25
16	6	4	247.36834410157
17	6	4	20.35
18	6	4	262.83019421619
19	6	4	17.25
20	6	4	279.15730188279
21	6	4	20.35
24	6	4	295.26164304285
25	6	4	17.25
26	6	4	313.13187472566
27	6	4	17.25
28	6	4	325.92214748833
29	6	4	20.35
30	6	4	341.16311519384
31	6	4	17.25
32	6	4	359.11870220051
33	6	4	17.25
34	6	4	372.37888232101
35	6	4	20.35
36	6	4	387.73967476845
37	6	4	17.25
38	6	4	404.44329878237
39	6	4	20.35
40	6	4	422.15962109944
41	6	4	20.35
42	6	4	435.95152161653
43	6	4	17.25
44	6	4	30.19265652443
45	6	4	17.25
46	6	4	451.79792832678
47	6	4	20.35
48	6	4	467.0823943693
49	6	4	17.25
50	6	4	482.48405567285
51	6	4	20.35
52	6	4	498.39626381432
53	6	4	17.25
54	6	4	513.98938482911
55	6	4	20.35
56	6	4	529.07802894807
57	6	4	17.25
58	6	4	546.69935912303
59	6	4	17.25
60	6	4	560.69919652864
61	6	4	20.35
62	6	4	575.66805328811
63	6	4	17.25
64	6	4	593.24917354492
65	6	4	17.25
66	6	4	44.916806666868
67	6	4	20.35
68	6	4	606.07480960318
69	6	4	20.35
70	6	4	622.18289040198
71	6	4	17.25
72	6	4	639.75762181308
73	6	4	17.25
74	6	4	654.2693316308
75	6	4	20.35
76	6	4	669.7113695215
77	6	4	17.25
78	6	4	685.31984477081
79	6	4	20.35
80	6	4	700.54540779638
81	6	4	17.25
82	6	4	716.75579780601
83	6	4	20.35
84	6	4	733.15380569675
85	6	4	17.25
86	6	4	748.94792039151
87	6	4	20.35
88	6	4	60.216845086773
89	6	4	17.25
90	6	4	764.22842237271
91	6	4	17.25
92	6	4	779.26874445183
93	6	4	20.35
94	6	4	795.05649460138
95	6	4	17.25
96	6	4	810.74562129628
97	6	4	20.35
98	6	4	826.20842871103
99	6	4	17.25
100	6	4	841.8775915666
101	6	4	20.35
102	6	4	856.62035288848
103	6	4	17.25
104	6	4	872.99297056641
105	6	4	20.35
106	6	4	888.22803290375
107	6	4	17.25
108	6	4	903.44873067744
109	6	4	20.35
110	6	4	74.68698537889
111	6	4	20.35
112	6	4	918.91890534719
113	6	4	17.25
114	6	4	935.30613188678
115	6	4	20.35
116	6	4	951.08342263506
117	6	4	17.25
118	6	4	966.65731359453
119	6	4	20.35
120	6	4	981.77463946525
121	6	4	17.25
122	6	4	91.224250963537
123	6	4	17.25
124	6	4	107.14423648519
125	6	4	20.35
126	6	4	122.80645952296
127	6	4	17.25
129	6	4	13.86775679869
130	6	4	14.395850676588
131	6	4	13.075655831524
132	6	4	14.916270245521
133	6	4	14.374463818825
134	6	4	14.454970195856
135	6	4	13.9357881121
136	6	4	14.255320135797
137	6	4	14.287490932881
138	6	4	13.806381192432
140	6	4	13.784483282123
141	6	4	12.50638181192
142	6	4	13.683276409799
143	6	4	13.784752448808
144	6	4	12.670178268355
145	6	4	13.868823171635
146	6	4	13.892861572607
147	6	4	13.542384260412
148	6	4	12.495415336095
149	6	4	13.430470010388
150	6	4	14.316022187623
151	6	4	13.218590507964
152	6	4	13.050666149968
153	6	4	13.329147500429
154	6	4	12.93465490171
155	6	4	13.132484334553
156	6	4	13.398633409915
157	6	4	12.197492731961
158	6	4	13.065416769383
159	6	4	13.188080413852
160	6	4	12.022765351874
161	6	4	14.379746813174
162	6	4	13.635688787575
163	6	4	13.300777516229
164	6	4	12.28338449584
165	6	4	12.80405694533
166	6	4	12.900103658036
167	6	4	12.700688083375
168	6	4	12.909043001241
169	6	4	12.521875266066
170	6	4	12.062948877269
171	6	4	11.987568954697
172	6	4	14.340672925086
173	6	4	12.203366985205
174	6	4	12.460139181301
175	6	4	12.330356913494
176	6	4	12.130616726678
177	6	4	12.125067151359
178	6	4	12.120721081637
179	6	4	12.56885979678
180	6	4	12.074110882061
181	6	4	12.1029181151
182	6	4	12.365379648162
183	6	4	14.936520196619
184	6	4	12.348261133731
185	6	4	11.900743035114
186	6	4	11.828132388996
187	6	4	11.636799441763
188	6	4	11.998344962509
189	6	4	14.473353877211
190	6	4	14.269435945838
191	6	4	14.418117884885
192	6	4	1.83713255635
193	6	4	8.1652872915566
194	6	4	2.037369897149
195	6	4	9.1485104613398
196	6	4	1.8469328276208
197	6	4	7.7674058992595
198	6	4	2.0777099865861
199	6	4	9.6051434150607
200	6	4	1.4778600595019
201	6	4	7.197471579029
202	6	4	2.1693686649716
203	6	4	9.6436370838311
204	6	4	1.8306319661485
205	6	4	8.1805012319595
206	6	4	2.0510351094417
207	6	4	9.111684496337
208	6	4	2.0401331629883
209	6	4	9.0934158007565
210	6	4	1.7513773377519
211	6	4	7.8465592543112
214	6	4	1.8994603739562
215	6	4	8.3270460266438
216	6	4	1.6390018401763
217	6	4	6.8340257044563
218	6	4	1.8257483538659
219	6	4	8.0274660059001
220	6	4	1.8581695776549
221	6	4	8.1900232013575
222	6	4	1.8016004419981
223	6	4	7.4103171453263
224	6	4	2.0094207610167
225	6	4	8.7417214576722
226	6	4	1.9908283998212
227	6	4	8.6935551957083
228	6	4	2.0099731332553
229	6	4	8.5526974565766
230	6	4	1.8964217075982
231	6	4	7.6038829109587
232	6	4	2.1715644277283
233	6	4	9.0104753372877
234	6	4	2.1174810538208
235	6	4	9.3773001851279
236	6	4	2.1322318218695
237	6	4	8.7536411791235
238	6	4	1.8170932976971
239	6	4	7.6600437954303
240	6	4	1.9924565620627
241	6	4	8.3721811938089
242	6	4	1.7229498456186
243	6	4	7.3047475622998
244	6	4	2.0075210292498
245	6	4	8.3063969140299
246	6	4	2.1103632927127
247	6	4	8.7930674432746
248	6	4	1.8283664459797
249	6	4	7.240707883914
250	6	4	1.9946020703414
251	6	4	8.226845482048
252	6	4	1.8263538778946
253	6	4	7.7628369454215
254	6	4	1.5427313010717
255	6	4	6.320562182685
256	6	4	2.0240390777006
257	6	4	9.0927044331531
258	6	4	2.1008094981126
259	6	4	8.9056770872365
260	6	4	2.0561010136828
261	6	4	8.5598074509297
262	6	4	1.8972884403754
263	6	4	7.4902943055748
264	6	4	1.8897530114115
265	6	4	7.7529422744594
266	6	4	2.0968838975998
267	6	4	8.4496692392986
268	6	4	1.8471607864904
269	6	4	7.5658506094143
270	6	4	1.9527004688233
271	6	4	8.0064644315099
272	6	4	1.8158506033127
273	6	4	7.3752546737311
274	6	4	1.8035093365679
275	6	4	7.0971821663155
276	6	4	1.7982060063886
277	6	4	7.0424400082374
278	6	4	1.8515458482155
279	6	4	8.4733722273769
280	6	4	2.0118250887049
281	6	4	7.7833759590911
282	6	4	2.0155842794455
283	6	4	7.9423690528962
284	6	4	1.9863277860428
285	6	4	7.7806006377858
286	6	4	1.8636172182858
287	6	4	7.3083263235248
288	6	4	1.9597471396998
289	6	4	7.5862451091989
290	6	4	1.9744094132143
291	6	4	7.6266356738954
292	6	4	2.1232300821785
293	6	4	8.331213634961
294	6	4	2.0097694070544
295	6	4	7.703210769118
296	6	4	1.7721914657159
297	6	4	7.0267518783758
298	6	4	2.016392479951
299	6	4	7.8901300649613
300	6	4	1.9671718125022
301	6	4	9.2196059152335
302	6	4	1.9963119456358
303	6	4	7.8205028405985
304	6	4	1.9797246409208
305	6	4	7.5178009174106
306	6	4	1.9992521805665
307	6	4	7.5324868319152
308	6	4	1.8208513780264
309	6	4	6.9234503281662
310	6	4	2.0849926314456
311	6	4	7.8773318876066
312	6	4	1.9086780698388
313	6	4	8.745891917133
314	6	4	1.7965954278479
315	6	4	8.2451373551932
316	6	4	2.0793810509704
317	6	4	9.3077777864354
2	7	5	124.44706477417
3	7	5	20.35
4	7	5	138.63653477076
5	7	5	17.25
6	7	5	158.13823909871
7	7	5	17.25
8	7	5	167.1885890142
9	7	5	20.35
10	7	5	183.7458650841
11	7	5	17.25
12	7	5	200.61826833406
13	7	5	20.35
14	7	5	217.26332519508
15	7	5	17.25
16	7	5	232.00980960693
17	7	5	20.35
18	7	5	247.46661253076
19	7	5	17.25
20	7	5	264.41717825755
21	7	5	20.35
24	7	5	280.30826877909
25	7	5	17.25
26	7	5	299.59297446835
27	7	5	17.25
28	7	5	311.25556755922
29	7	5	20.35
30	7	5	326.41338100075
31	7	5	17.25
32	7	5	345.47239597208
33	7	5	17.25
34	7	5	357.30764253038
35	7	5	20.35
36	7	5	372.7733147924
37	7	5	17.25
38	7	5	389.80438239975
39	7	5	20.35
40	7	5	408.70021513705
41	7	5	20.35
42	7	5	421.41722029093
43	7	5	17.25
46	7	5	437.44280494574
47	7	5	20.35
48	7	5	453.06397441359
49	7	5	17.25
50	7	5	468.20865421299
51	7	5	20.35
52	7	5	484.41077590658
53	7	5	17.25
54	7	5	499.8007374141
55	7	5	20.35
56	7	5	514.4712439717
57	7	5	17.25
58	7	5	533.38304359377
59	7	5	17.25
60	7	5	546.5043787166
61	7	5	20.35
62	7	5	561.54851138783
63	7	5	17.25
64	7	5	580.26351120245
65	7	5	17.25
66	7	5	29.451678979434
67	7	5	20.35
68	7	5	591.33853463377
69	7	5	20.35
70	7	5	607.90692334502
71	7	5	17.25
72	7	5	626.59963091073
73	7	5	17.25
74	7	5	640.43138905596
75	7	5	20.35
76	7	5	655.72654116458
77	7	5	17.25
78	7	5	671.55057516103
79	7	5	20.35
80	7	5	686.61757556849
81	7	5	17.25
82	7	5	703.13171700229
83	7	5	20.35
84	7	5	720.06406279358
85	7	5	17.25
86	7	5	736.00898356321
87	7	5	20.35
88	7	5	44.784980125703
89	7	5	17.25
90	7	5	751.05782775851
91	7	5	17.25
92	7	5	765.73625158169
93	7	5	20.35
94	7	5	781.66031566648
95	7	5	17.25
96	7	5	797.49731735193
97	7	5	20.35
98	7	5	812.92612897366
99	7	5	17.25
100	7	5	828.6931324838
101	7	5	20.35
102	7	5	842.9524539008
103	7	5	17.25
104	7	5	859.88552027899
105	7	5	20.35
106	7	5	875.17152071906
107	7	5	17.25
108	7	5	890.00763092567
109	7	5	20.35
110	7	5	58.818981900526
111	7	5	20.35
112	7	5	905.55777202301
113	7	5	17.25
114	7	5	922.29192320289
115	7	5	20.35
116	7	5	938.22679629582
117	7	5	17.25
118	7	5	953.97797135619
119	7	5	20.35
120	7	5	968.74055755664
121	7	5	17.25
122	7	5	75.678072847634
123	7	5	17.25
124	7	5	91.919539608283
125	7	5	20.35
126	7	5	107.36675302657
127	7	5	17.25
129	7	5	15.642723892234
130	7	5	16.286049203572
131	7	5	14.95565150795
132	7	5	17.105187925666
133	7	5	15.461717967117
134	7	5	16.237523388261
135	7	5	15.952239638016
136	7	5	16.323992464402
137	7	5	16.19672826265
138	7	5	15.525136352136
140	7	5	15.921216606893
141	7	5	14.385389043389
142	7	5	15.426653166701
143	7	5	15.404399904154
144	7	5	14.324546331867
145	7	5	15.938836568538
146	7	5	15.394209277156
147	7	5	15.556203476222
148	7	5	14.355267767667
149	7	5	15.284439818954
151	7	5	15.239562966042
152	7	5	14.823240717281
153	7	5	15.155357085519
154	7	5	14.94290271519
155	7	5	15.02614543996
156	7	5	15.388930177847
157	7	5	14.200701832012
158	7	5	15.004812954942
159	7	5	14.932283838059
160	7	5	13.754829343491
161	7	5	16.35227027969
162	7	5	15.661740489085
163	7	5	15.042212553042
164	7	5	13.850669231017
165	7	5	14.740575431004
166	7	5	14.8483332643
167	7	5	14.655644147918
168	7	5	14.784429444838
169	7	5	14.62637631097
170	7	5	13.849476610974
171	7	5	13.770601203595
172	7	5	16.242995983796
173	7	5	14.067137839932
174	7	5	14.499471274164
175	7	5	14.216119720923
176	7	5	14.168787560047
177	7	5	14.172157251639
178	7	5	14.118153551418
179	7	5	14.497767443603
180	7	5	14.002755647058
181	7	5	13.840997103322
182	7	5	14.198897917687
183	7	5	16.73846944352
184	7	5	14.255550233313
185	7	5	13.940857014497
186	7	5	13.67197874834
187	7	5	13.531816807967
188	7	5	13.960102853732
189	7	5	16.482916669863
190	7	5	16.096336254941
191	7	5	16.202528809233
192	7	5	1.7749670935445
193	7	5	8.9096451854633
194	7	5	1.8901985269831
195	7	5	9.7135939766476
196	7	5	1.8799956764258
197	7	5	8.9165731352183
198	7	5	2.1889176801452
199	7	5	11.420974135415
200	7	5	1.0872541482919
201	7	5	6.2487449661808
202	7	5	1.782553192405
203	7	5	9.2643490365189
204	7	5	2.0164515259163
205	7	5	10.006768812051
206	7	5	2.0686723286053
207	7	5	10.437635131414
208	7	5	1.9092373297689
209	7	5	9.7363826260451
210	7	5	1.718755159704
211	7	5	8.6354382042261
214	7	5	2.1367333247699
215	7	5	10.449535391684
216	7	5	1.8790072314697
217	7	5	8.5932444877526
218	7	5	1.7433767569019
219	7	5	8.6748955636912
220	7	5	1.6196474553454
221	7	5	8.2036665812027
222	7	5	1.6543680635123
223	7	5	7.7837798996029
224	7	5	2.0700133969029
225	7	5	10.204409434736
226	7	5	1.5013477045491
227	7	5	7.7596349004965
228	7	5	2.0138192158099
229	7	5	9.758093325205
230	7	5	1.8598524315723
231	7	5	8.5101591212015
232	7	5	1.8539698085655
233	7	5	9.0063654912118
236	7	5	2.0209724580776
237	7	5	9.5946088329764
238	7	5	1.7725745673128
239	7	5	8.4583064472993
240	7	5	1.8262095850892
241	7	5	8.8327841010474
242	7	5	2.00824781348
243	7	5	9.3712589993699
244	7	5	1.8936611054069
245	7	5	9.0057900890339
246	7	5	1.9902967679314
247	7	5	9.5705046571074
248	7	5	2.0032091000509
249	7	5	8.915309424547
250	7	5	1.9393961855583
251	7	5	9.1590778680079
252	7	5	1.7442034242069
253	7	5	8.4147393190454
254	7	5	1.7320639916167
255	7	5	7.7555780505239
256	7	5	1.9725234665163
257	7	5	10.076276301641
258	7	5	2.0260517015099
259	7	5	9.8677020728759
260	7	5	1.7414350368129
261	7	5	8.4630583321276
262	7	5	1.5672847351769
263	7	5	7.2552328105288
264	7	5	1.9365184856742
265	7	5	8.996406259524
266	7	5	1.9482296062633
267	7	5	9.1003392810835
268	7	5	1.9549560645432
269	7	5	9.0127084410665
270	7	5	1.8753864435968
271	7	5	8.8038207617752
272	7	5	2.1045010449039
273	7	5	9.5229080532963
274	7	5	1.786527733705
275	7	5	7.9864339937609
276	7	5	1.7830322488979
277	7	5	7.932899520194
278	7	5	1.9023230587109
279	7	5	9.736210619389
280	7	5	1.8637708547269
281	7	5	8.3642698236284
282	7	5	2.039332092863
283	7	5	9.2172383914897
284	7	5	1.8857628074288
285	7	5	8.5219781667965
286	7	5	2.0381708333688
287	7	5	9.0159659745195
288	7	5	2.0470901002805
289	7	5	9.0484349064202
290	7	5	1.9974324697815
291	7	5	8.8472337023396
292	7	5	1.9289076468232
293	7	5	8.8304007286027
294	7	5	1.9286447649961
295	7	5	8.5476585631752
296	7	5	1.7380789882224
297	7	5	7.8203140678518
298	7	5	1.8335182695254
299	7	5	8.3335798286561
300	7	5	1.8019492469006
301	7	5	9.6197064141815
302	7	5	1.9072890995815
303	7	5	8.61797028226
304	7	5	2.0401139793824
305	7	5	8.8870614510474
306	7	5	1.8438463593437
307	7	5	8.0809962029294
308	7	5	1.8950173662044
309	7	5	8.171642039485
310	7	5	1.9617578912224
311	7	5	8.6348704206015
312	7	5	2.0095627926523
313	7	5	10.301578674626
314	7	5	1.8269003091031
315	7	5	9.3586899593637
316	7	5	1.784410924348
317	7	5	9.252329965725
2	8	6	107.82425437417
3	8	6	20.35
4	8	6	121.94207927503
5	8	6	17.25
6	8	6	142.52578416886
7	8	6	17.25
8	8	6	149.10704780579
9	8	6	20.35
10	8	6	167.77167247465
11	8	6	17.25
12	8	6	183.36344572942
13	8	6	20.35
14	8	6	200.21323998388
15	8	6	17.25
16	8	6	214.70021343515
17	8	6	20.35
18	8	6	230.33732017594
19	8	6	17.25
20	8	6	247.87798904533
21	8	6	20.35
24	8	6	263.67162646774
25	8	6	17.25
26	8	6	284.18171808108
27	8	6	17.25
28	8	6	294.70612229225
29	8	6	20.35
30	8	6	310.38422476379
31	8	6	17.25
32	8	6	330.48175143662
33	8	6	17.25
34	8	6	340.23706434442
35	8	6	20.35
36	8	6	356.9234991396
37	8	6	17.25
38	8	6	373.29029217073
39	8	6	20.35
40	8	6	393.39712664928
41	8	6	20.35
42	8	6	405.19083818255
43	8	6	17.25
46	8	6	421.18744404533
47	8	6	23.45
48	8	6	437.16413153388
49	8	6	17.25
50	8	6	452.03233800259
51	8	6	20.35
52	8	6	468.39614221297
53	8	6	17.25
54	8	6	483.68266531235
55	8	6	20.35
56	8	6	498.14449798531
57	8	6	17.25
58	8	6	518.22400813857
59	8	6	17.25
60	8	6	530.40132089386
61	8	6	20.35
62	8	6	545.69743687043
63	8	6	17.25
64	8	6	565.56951159199
65	8	6	17.25
68	8	6	574.49580147033
69	8	6	20.35
70	8	6	592.24379521962
71	8	6	17.25
72	8	6	612.03238121065
73	8	6	17.25
74	8	6	624.66591366977
75	8	6	20.35
76	8	6	639.9683907688
77	8	6	17.25
78	8	6	655.84759065629
79	8	6	20.35
80	8	6	670.76770729399
81	8	6	17.25
82	8	6	687.44586012742
83	8	6	20.35
84	8	6	705.17957813418
85	8	6	17.25
86	8	6	721.06322886605
87	8	6	20.35
88	8	6	27.529613588643
89	8	6	17.25
90	8	6	735.97221520626
91	8	6	17.25
92	8	6	750.15678834683
93	8	6	20.35
94	8	6	766.41578444039
95	8	6	17.25
96	8	6	782.25747443537
97	8	6	20.35
98	8	6	797.76814494172
99	8	6	17.25
100	8	6	813.43256837708
101	8	6	20.35
102	8	6	827.55522908086
103	8	6	17.25
104	8	6	844.79189862743
105	8	6	20.35
106	8	6	860.32517514608
107	8	6	17.25
108	8	6	874.726999268
109	8	6	20.35
110	8	6	41.012108548638
111	8	6	20.35
112	8	6	890.20548161336
113	8	6	17.25
114	8	6	907.18455934897
115	8	6	20.35
116	8	6	923.39917487389
117	8	6	17.25
118	8	6	939.36099329504
119	8	6	20.35
120	8	6	953.73498940852
121	8	6	17.25
122	8	6	58.048369124769
123	8	6	17.25
124	8	6	74.749244148572
125	8	6	20.35
126	8	6	90.264042504485
127	8	6	17.25
129	8	6	17.491338385207
130	8	6	17.193804786258
131	8	6	16.14617834067
132	8	6	18.798710585432
133	8	6	16.235687779768
134	8	6	18.135908288
135	8	6	17.923237021943
136	8	6	18.127575573278
137	8	6	17.83871669043
138	8	6	17.37648676897
140	8	6	17.253948908088
141	8	6	16.130865282389
142	8	6	17.589950367656
143	8	6	16.50480871084
144	8	6	15.316960481593
145	8	6	17.962099860746
146	8	6	16.003015612572
147	8	6	17.348195832259
148	8	6	16.091975574345
149	8	6	16.687233280222
151	8	6	17.119786793963
152	8	6	16.888976593212
153	8	6	17.123780883496
154	8	6	16.925214880861
155	8	6	17.017634310885
156	8	6	16.798039665413
157	8	6	15.628036773059
158	8	6	17.01743841894
159	8	6	16.461717606677
160	8	6	15.362916940021
162	8	6	17.730082250235
163	8	6	16.216547865024
164	8	6	15.066359801856
165	8	6	16.576974264219
166	8	6	16.212108328457
167	8	6	16.596351278199
168	8	6	16.76450585518
169	8	6	16.581877573392
170	8	6	15.705267617421
171	8	6	15.888696075871
172	8	6	18.151997878504
173	8	6	15.872680747237
174	8	6	16.533735954229
175	8	6	16.054598083024
176	8	6	16.177399512838
177	8	6	15.933093581367
178	8	6	16.149288000606
179	8	6	16.230051260805
180	8	6	15.998990345016
181	8	6	15.614139098471
182	8	6	16.120868289179
183	8	6	18.658015049988
184	8	6	16.25232552663
185	8	6	15.983487335566
186	8	6	15.669714852852
187	8	6	15.445831767552
188	8	6	15.788875184838
189	8	6	18.474735243154
190	8	6	17.924216829592
191	8	6	17.784600275327
192	8	6	1.8486144929729
193	8	6	10.240813184768
194	8	6	0.90775558268601
195	8	6	6.170459639214
196	8	6	1.1905268327208
197	8	6	6.9103539992119
198	8	6	1.693522659766
199	8	6	10.303037071506
200	8	6	0.77396981265154
201	8	6	5.3169519972182
202	8	6	1.8983848997392
203	8	6	10.833298931219
204	8	6	1.9709973839275
205	8	6	11.020230653833
206	8	6	1.8035831088759
207	8	6	10.414160531158
208	8	6	1.6419884277803
209	8	6	9.5540635960664
210	8	6	1.8513504168345
211	8	6	10.185887456466
214	8	6	1.3327323011951
215	8	6	7.9586023821754
216	8	6	1.7454762389995
217	8	6	9.0615036135749
218	8	6	2.163297200955
219	8	6	11.631907925225
220	8	6	1.1004088066859
221	8	6	6.6985832564741
222	8	6	0.99241414972577
223	8	6	5.8442389388869
224	8	6	2.0232632922079
225	8	6	11.270285155462
226	8	6	0.60880633541576
227	8	6	4.608583041618
228	8	6	1.7919923560368
229	8	6	9.9213654491329
230	8	6	1.7367078066782
231	8	6	9.0064651310751
232	8	6	1.4027934612683
233	8	6	7.9857641127089
236	8	6	1.8802238279209
237	8	6	10.156934221026
238	8	6	2.0657358759316
239	8	6	10.777795203972
240	8	6	1.9684237979772
241	8	6	10.523247637397
242	8	6	1.982312165671
243	8	6	10.460171694825
244	8	6	1.9914888709248
245	8	6	10.553795428871
246	8	6	1.4091094875662
247	8	6	8.0627475420594
248	8	6	1.4273349410468
249	8	6	7.5923522138427
250	8	6	2.0126254639984
251	8	6	10.640361690792
252	8	6	1.5294337686178
253	8	6	8.3838917443342
254	8	6	1.6080875965301
255	8	6	8.1399525231031
258	8	6	2.0683417611499
259	8	6	11.318098449392
260	8	6	1.1743353119819
261	8	6	6.8757656646869
262	8	6	1.2156905708392
263	8	6	6.5668997677988
264	8	6	1.8363988332148
265	8	6	9.6669922170786
266	8	6	1.3637750641573
267	8	6	7.6141350661413
268	8	6	1.9407071302808
269	8	6	10.095184143616
270	8	6	1.980076410342
271	8	6	10.353971579938
272	8	6	1.9555012624222
273	8	6	10.145733345675
274	8	6	1.8557910064468
275	8	6	9.2495908000233
276	8	6	2.1180948722758
277	8	6	10.357570249929
278	8	6	1.9090018947073
279	8	6	10.889349615738
280	8	6	1.8055429073051
281	8	6	9.1518930641056
282	8	6	2.0342646800657
283	8	6	10.430908314128
284	8	6	1.8384783621016
285	8	6	9.3801080225047
286	8	6	2.0086119527905
287	8	6	10.112590111223
288	8	6	1.760936329728
289	8	6	9.0140457034449
290	8	6	2.0311344491877
291	8	6	10.183247630336
292	8	6	1.7322838172014
293	8	6	9.0636070967081
294	8	6	1.996234697958
295	8	6	9.9570988170945
296	8	6	1.7731419951492
297	8	6	8.8872358563495
298	8	6	1.9219703714922
299	8	6	9.741798084311
300	8	6	1.9195456064679
301	8	6	11.241480688264
302	8	6	1.9967752933176
303	8	6	10.111571949539
304	8	6	2.0426303210692
305	8	6	10.126510770722
306	8	6	1.9977361045126
307	8	6	9.765591773875
308	8	6	1.9140149595845
309	8	6	9.3203365712527
310	8	6	1.828772331106
311	8	6	9.1939535387155
312	8	6	1.991818573291
313	8	6	11.452131874117
314	8	6	1.8278805746511
315	8	6	10.402603703812
316	8	6	1.5820714660931
317	8	6	9.2684706216327
2	9	7	89.224737024915
3	9	7	20.35
4	9	7	103.49486410488
5	9	7	17.25
6	9	7	125.39392265881
7	9	7	17.25
8	9	7	129.342136069
9	9	7	20.35
10	9	7	150.72037968768
11	9	7	17.25
12	9	7	164.18120305831
13	9	7	20.35
14	9	7	181.85864907266
15	9	7	17.25
16	9	7	195.55497096551
17	9	7	20.35
18	9	7	211.63200569795
19	9	7	17.25
20	9	7	229.41925875268
21	9	7	20.35
24	9	7	245.3210496679
25	9	7	17.25
26	9	7	267.1344715047
27	9	7	17.25
28	9	7	276.09266236543
29	9	7	20.35
30	9	7	293.21640597294
31	9	7	17.25
32	9	7	314.38910345551
33	9	7	17.25
34	9	7	321.2048065024
35	9	7	20.35
36	9	7	340.4599662329
37	9	7	17.25
38	9	7	354.84200241871
39	9	7	20.35
40	9	7	376.29139169624
41	9	7	20.35
42	9	7	388.22543341273
43	9	7	17.25
46	9	7	402.89633465735
47	9	7	23.45
48	9	7	419.13556888833
49	9	7	17.25
50	9	7	433.86105505439
51	9	7	20.35
52	9	7	450.39992874675
53	9	7	17.25
54	9	7	465.69307939851
55	9	7	20.35
56	9	7	480.41035180417
57	9	7	17.25
58	9	7	501.67128230387
59	9	7	17.25
60	9	7	512.23575410362
61	9	7	20.35
62	9	7	528.67850466783
63	9	7	17.25
64	9	7	549.60510181076
65	9	7	17.25
68	9	7	555.73388120797
69	9	7	20.35
70	9	7	575.77844230302
71	9	7	17.25
72	9	7	596.53027911687
73	9	7	17.25
74	9	7	607.05382526004
75	9	7	20.35
76	9	7	623.58663281427
77	9	7	17.25
78	9	7	638.08713335488
79	9	7	20.35
80	9	7	653.42310367672
81	9	7	17.25
82	9	7	669.62509243237
83	9	7	20.35
84	9	7	688.52335829452
85	9	7	17.25
86	9	7	704.10111448862
87	9	7	20.35
90	9	7	719.08594200316
91	9	7	17.25
92	9	7	732.66684313747
93	9	7	23.45
94	9	7	749.23209722219
95	9	7	17.25
96	9	7	764.90002204775
97	9	7	20.35
98	9	7	780.75962698465
99	9	7	17.25
100	9	7	796.22392399202
101	9	7	20.35
102	9	7	810.46552922131
103	9	7	17.25
104	9	7	827.71550357248
105	9	7	20.35
106	9	7	843.72386860751
107	9	7	17.25
108	9	7	857.53369503837
109	9	7	23.45
112	9	7	873.11275381037
113	9	7	17.25
114	9	7	890.04073315971
115	9	7	20.35
116	9	7	906.62789662502
117	9	7	17.25
118	9	7	922.7090443084
119	9	7	20.35
120	9	7	937.11461013891
121	9	7	17.25
122	9	7	38.517770902936
123	9	7	17.25
124	9	7	55.644168552072
125	9	7	20.35
126	9	7	71.398011847971
127	9	7	17.25
129	9	7	19.435270486366
130	9	7	19.44953132996
131	9	7	17.911258972615
132	9	7	20.552422566437
133	9	7	17.636711734599
134	9	7	20.074105107429
135	9	7	18.761140967365
136	9	7	20.033457746151
137	9	7	19.291205256456
138	9	7	19.447836371165
140	9	7	19.21895016949
141	9	7	17.838018915371
142	9	7	19.594355212582
143	9	7	17.788427420085
144	9	7	16.718897369196
145	9	7	19.914711824744
146	9	7	16.918185350687
147	9	7	19.374306971039
148	9	7	17.97975812451
149	9	7	17.742153182342
151	9	7	19.158985936251
152	9	7	18.627065729347
153	9	7	19.122756164012
154	9	7	18.990256837175
155	9	7	18.811351355125
156	9	7	18.597784942393
157	9	7	17.301780854256
158	9	7	19.095534184992
159	9	7	17.513346692237
160	9	7	16.528401487531
162	9	7	19.689934495901
163	9	7	16.883508237974
164	9	7	15.868042577841
165	9	7	18.441232578981
166	9	7	16.564923081789
167	9	7	18.646086828613
168	9	7	17.763471982353
169	9	7	18.823992849704
170	9	7	17.516116237813
171	9	7	17.786651540147
173	9	7	17.658613869585
174	9	7	18.274998788099
175	9	7	18.03434048435
176	9	7	18.193566771719
177	9	7	17.89420130153
178	9	7	17.99953731971
179	9	7	17.812870549939
180	9	7	17.92872460218
181	9	7	17.454237546711
182	9	7	18.016389660414
184	9	7	17.876148946758
185	9	7	18.166832797477
186	9	7	17.689300344292
187	9	7	17.593458831732
188	9	7	17.25926429906
189	9	7	20.30298940333
190	9	7	20.119543509202
191	9	7	19.772010433539
192	9	7	1.9439321011584
193	9	7	11.83092057226
194	9	7	2.2557265437022
195	9	7	13.301269146952
196	9	7	1.765080631945
197	9	7	10.12403445182
198	9	7	1.7537119810051
199	9	7	11.589795727422
200	9	7	1.4010239548307
201	9	7	8.422560868771
202	9	7	1.9381968194293
203	9	7	12.202374810435
204	9	7	0.83790394542214
205	9	7	6.4135945747455
206	9	7	1.9058821728733
207	9	7	12.02088000176
208	9	7	1.4524885660255
209	9	7	9.4566987716699
210	9	7	2.071349602195
211	9	7	12.435926719619
214	9	7	1.9650012614019
215	9	7	11.794335431874
216	9	7	1.7071536329822
217	9	7	9.8338350550545
218	9	7	2.0044048449258
219	9	7	12.21548094552
220	9	7	1.2836187092455
221	9	7	7.990979744628
222	9	7	1.4019368876027
223	9	7	7.9969932527826
224	9	7	1.9526119639981
225	9	7	12.171757209053
226	9	7	0.91516973811518
227	9	7	6.1048751580366
228	9	7	2.0261111387797
229	9	7	12.176768226103
230	9	7	1.8877825501651
231	9	7	10.694273187399
232	9	7	1.0549199021198
233	9	7	6.9925011903893
236	9	7	2.0391991422884
237	9	7	12.099521678566
238	9	7	1.7380891361347
239	9	7	10.408108872497
240	9	7	1.9989752805163
241	9	7	11.890915282151
242	9	7	2.0650419563148
243	9	7	12.109720648185
244	9	7	1.7937170442403
245	9	7	10.764279710505
246	9	7	1.7997452769801
247	9	7	10.667967008014
248	9	7	1.6737440811973
249	9	7	9.4021568776636
250	9	7	2.0780957660522
251	9	7	12.237847336228
252	9	7	1.0516290855602
253	9	7	6.8896988325364
254	9	7	1.1654845475097
255	9	7	6.9669809232333
258	9	7	1.9598522456666
259	9	7	12.06506772689
260	9	7	0.66696037294966
261	9	7	5.082863607064
262	9	7	0.80168277598452
263	9	7	5.3103671630306
264	9	7	1.8642583147623
265	9	7	10.864349384856
266	9	7	0.35281475333207
267	9	7	3.7374753105144
268	9	7	2.0497355504148
269	9	7	11.819272537091
270	9	7	0.99896612717338
271	9	7	6.7612737296404
272	9	7	2.2421152763115
273	9	7	12.805790325749
274	9	7	1.8108486203919
275	9	7	10.095727019027
276	9	7	1.897955464276
277	9	7	10.623594489199
280	9	7	1.7859331223478
281	9	7	10.070970947661
282	9	7	1.7412628338696
283	9	7	10.224411364669
284	9	7	1.9797424013261
285	9	7	11.126326607064
286	9	7	2.016167258881
287	9	7	11.384166616406
288	9	7	1.9611077201623
289	9	7	10.959807694525
290	9	7	1.8502493191045
291	9	7	10.543184996884
292	9	7	1.5828192891341
293	9	7	9.2863055822386
294	9	7	1.929734257164
295	9	7	10.845300078493
296	9	7	1.8400984482397
297	9	7	10.183532843365
298	9	7	1.8955213712342
299	9	7	10.74959611437
302	9	7	1.6238234201274
303	9	7	9.4957324753343
304	9	7	2.1833454619115
305	9	7	12.099378950705
306	9	7	2.0195854914398
307	9	7	11.084403928867
308	9	7	2.1476270641806
309	9	7	11.567765481322
310	9	7	1.470389114222
311	9	7	8.5335858428369
312	9	7	1.8282541601756
313	9	7	11.808231428189
314	9	7	2.1953266796097
315	9	7	13.477651066551
316	9	7	1.9874101582123
317	9	7	12.247963877166
2	10	8	68.690727246769
3	10	8	20.35
4	10	8	83.158249904839
5	10	8	17.25
6	10	8	106.40506964758
7	10	8	17.25
8	10	8	107.6742570574
9	10	8	20.35
10	10	8	132.14108147521
11	10	8	17.25
12	10	8	143.0622762042
13	10	8	20.35
14	10	8	162.56448920664
15	10	8	17.25
16	10	8	174.47952886049
17	10	8	23.45
18	10	8	191.96168016564
19	10	8	17.25
20	10	8	208.87969130961
21	10	8	20.35
24	10	8	224.98463737672
25	10	8	17.25
26	10	8	248.43213384353
27	10	8	17.25
28	10	8	255.2907172945
29	10	8	20.35
30	10	8	274.71820332395
31	10	8	17.25
32	10	8	296.95594268084
33	10	8	17.25
34	10	8	300.29403248732
35	10	8	20.35
36	10	8	322.97185710196
37	10	8	17.25
38	10	8	334.38168808933
39	10	8	20.35
40	10	8	357.1978226647
41	10	8	20.35
42	10	8	369.3431549966
43	10	8	17.25
46	10	8	382.72831717198
47	10	8	23.45
48	10	8	399.67098404445
49	10	8	17.25
50	10	8	413.57069334332
51	10	8	20.35
52	10	8	430.48533585689
53	10	8	17.25
54	10	8	445.84943254768
55	10	8	20.35
56	10	8	460.77234806328
57	10	8	17.25
58	10	8	483.43615092035
59	10	8	17.25
60	10	8	492.13105605888
61	10	8	20.35
62	10	8	510.40212665383
63	10	8	17.25
64	10	8	532.14924706676
65	10	8	20.35
68	10	8	535.02018929732
69	10	8	23.45
70	10	8	558.24276479897
71	10	8	17.25
72	10	8	580.0027460564
73	10	8	17.25
74	10	8	587.50799247756
75	10	8	20.35
76	10	8	606.60015034691
77	10	8	17.25
78	10	8	618.35560319644
79	10	8	23.45
80	10	8	635.52865279458
81	10	8	17.25
82	10	8	649.66584641519
83	10	8	20.35
84	10	8	669.93681629054
85	10	8	17.25
86	10	8	685.11054364184
87	10	8	20.35
90	10	8	700.48896308156
91	10	8	17.25
92	10	8	713.3281332901
93	10	8	23.45
94	10	8	730.22635755747
95	10	8	17.25
96	10	8	745.62980127527
97	10	8	20.35
98	10	8	761.87405888696
99	10	8	17.25
100	10	8	777.00872088489
101	10	8	20.35
102	10	8	791.54081923383
103	10	8	17.25
104	10	8	808.78976482584
105	10	8	20.35
106	10	8	825.22949252684
107	10	8	17.25
108	10	8	838.61629997815
109	10	8	23.45
112	10	8	854.24248125316
113	10	8	17.25
114	10	8	870.90516687109
115	10	8	20.35
116	10	8	887.85518791314
117	10	8	17.25
118	10	8	904.06263975959
119	10	8	20.35
120	10	8	918.76184404562
121	10	8	17.25
124	10	8	34.511602674965
125	10	8	20.35
126	10	8	50.482504167281
127	10	8	17.25
129	10	8	21.340856964254
130	10	8	21.327671010523
131	10	8	19.874724649256
132	10	8	22.544281090531
133	10	8	19.333174439453
134	10	8	21.970050715359
135	10	8	19.815491903245
136	10	8	21.897503655762
137	10	8	19.980181791674
138	10	8	21.387858823523
140	10	8	20.879128865894
141	10	8	19.395931607522
142	10	8	21.75910237145
143	10	8	19.105737770872
144	10	8	18.043226119515
145	10	8	21.847099776133
146	10	8	17.958109946552
147	10	8	21.234705292898
148	10	8	19.912363921343
149	10	8	19.698276387327
151	10	8	21.024809534636
152	10	8	20.035160034806
153	10	8	21.199466765582
154	10	8	20.434780637841
155	10	8	20.704292427969
156	10	8	20.536664624756
157	10	8	18.95831859183
158	10	8	20.915059546202
159	10	8	18.858069461564
160	10	8	18.329001824344
162	10	8	21.559014183951
163	10	8	18.295522605725
164	10	8	17.142685809274
165	10	8	20.449602152478
166	10	8	17.380420728221
167	10	8	20.597716860206
168	10	8	18.057192917053
169	10	8	20.763919796281
170	10	8	19.502175784323
171	10	8	19.901973853768
173	10	8	19.389111997063
174	10	8	20.288985600973
175	10	8	19.664579939634
176	10	8	20.227191877727
177	10	8	19.792633134471
178	10	8	20.147987329899
179	10	8	19.831976277977
180	10	8	19.744316396707
181	10	8	19.338697862539
182	10	8	19.743528049786
184	10	8	19.437237915983
185	10	8	19.933513223607
186	10	8	19.623515105247
187	10	8	19.521232775094
188	10	8	19.193254783124
190	10	8	21.880634282376
191	10	8	21.749927924101
192	10	8	1.9055864778883
193	10	8	12.838052660558
194	10	8	1.8781396805635
195	10	8	12.688622026947
196	10	8	1.9634656766403
197	10	8	12.198612069954
198	10	8	1.9918585240934
199	10	8	14.078123639208
200	10	8	1.6964627048537
201	10	8	10.614500143066
202	10	8	1.895945607929
203	10	8	13.188092905186
204	10	8	1.0543509358793
205	10	8	7.819753166509
206	10	8	1.8640459096106
207	10	8	12.973428045845
208	10	8	0.688976535218
209	10	8	6.1282564633647
210	10	8	1.9400224523572
211	10	8	13.045350302781
214	10	8	1.6601786964036
215	10	8	11.311845780909
216	10	8	1.5579126921506
217	10	8	10.00206665458
218	10	8	2.1647471588687
219	10	8	14.463161510099
220	10	8	1.3173103507872
221	10	8	8.7414580407986
222	10	8	1.3243287503194
223	10	8	8.2817838627635
224	10	8	1.932387951389
225	10	8	13.301501920497
226	10	8	1.039924595865
227	10	8	7.0119945308852
228	10	8	1.8603983218596
229	10	8	12.539597251644
230	10	8	1.9326057968331
231	10	8	12.074273850953
232	10	8	1.9561232049856
233	10	8	12.052604067713
236	10	8	1.8658235983853
237	10	8	12.436882529837
238	10	8	1.4080943054587
239	10	8	9.6183778054447
240	10	8	2.0767106015701
241	10	8	13.622856582389
242	10	8	1.4445238006654
243	10	8	9.9980226798132
244	10	8	1.892941072844
245	10	8	12.373935154257
246	10	8	1.9388796823635
247	10	8	12.496989498868
248	10	8	1.6565377375736
249	10	8	10.222661111819
250	10	8	1.8195253612101
251	10	8	12.135495011267
252	10	8	1.3447227693274
253	10	8	8.7507351563089
254	10	8	1.8006003368137
255	10	8	10.516802601745
258	10	8	1.8690796880494
259	10	8	12.786902898237
260	10	8	1.4120143677511
261	10	8	8.7841866581953
262	10	8	1.2746432314338
263	10	8	7.6683896827245
264	10	8	2.0083695734968
265	10	8	12.784445614635
266	10	8	0.81549764643216
267	10	8	5.8493045042192
268	10	8	1.9516300315922
269	10	8	12.59891314847
270	10	8	0.29372093469991
271	10	8	3.8031943462668
272	10	8	1.9399269465776
273	10	8	12.646239866324
274	10	8	1.9860595465102
275	10	8	12.070520377035
276	10	8	2.1153223136207
277	10	8	12.944169317875
280	10	8	1.7304981274787
281	10	8	10.80491952646
282	10	8	2.0139868128742
283	10	8	12.707953839417
284	10	8	1.6302394552842
285	10	8	10.487059364389
286	10	8	2.0336251060083
287	10	8	12.763683811071
288	10	8	1.8984318329417
289	10	8	11.836644116121
290	10	8	2.1484500101884
291	10	8	13.269650123763
292	10	8	2.0191057280381
293	10	8	12.437583920989
294	10	8	1.8155917945272
295	10	8	11.412790092221
296	10	8	1.8844603158278
297	10	8	11.493783730937
298	10	8	1.7271383893723
299	10	8	10.991443815949
302	10	8	1.561088969225
303	10	8	10.038762631695
304	10	8	1.7666804261296
305	10	8	11.290369403944
306	10	8	1.9342147609545
307	10	8	11.902133318731
308	10	8	1.9277739433618
309	10	8	11.80836034619
310	10	8	1.933990484064
311	10	8	11.634857981243
314	10	8	1.7610907731741
315	10	8	12.419889547141
316	10	8	1.977917490562
317	10	8	13.477418123136
2	11	9	46.220015188535
3	11	9	20.35
4	11	9	60.753405587174
5	11	9	17.25
6	11	9	85.491446225422
7	11	9	17.25
8	11	9	84.003961837245
9	11	9	23.45
10	11	9	111.9251544151
11	11	9	17.25
12	11	9	119.98307204328
13	11	9	20.35
14	11	9	142.07325064094
15	11	9	17.25
16	11	9	151.62903037469
17	11	9	23.45
18	11	9	171.37783263739
19	11	9	17.25
20	11	9	186.39928161524
21	11	9	20.35
24	11	9	203.73227475551
25	11	9	17.25
26	11	9	228.1958983049
27	11	9	17.25
28	11	9	232.36045404372
29	11	9	20.35
30	11	9	254.89695147833
31	11	9	17.25
32	11	9	278.16324337177
33	11	9	17.25
34	11	9	277.34240576035
35	11	9	20.35
36	11	9	304.38805553366
37	11	9	17.25
38	11	9	312.02699779033
39	11	9	20.35
40	11	9	336.25049038037
41	11	9	20.35
42	11	9	348.55401778001
43	11	9	17.25
46	11	9	360.66165483402
47	11	9	23.45
48	11	9	378.76372348884
49	11	9	17.25
50	11	9	391.46733541363
51	11	9	20.35
52	11	9	409.36681958028
53	11	9	17.25
54	11	9	424.10013604042
55	11	9	23.45
56	11	9	439.55066097211
57	11	9	17.25
58	11	9	463.54438887882
59	11	9	17.25
60	11	9	470.07352595017
61	11	9	20.35
62	11	9	490.77419985592
63	11	9	17.25
64	11	9	512.72209042904
65	11	9	20.35
68	11	9	512.40412764285
69	11	9	23.45
70	11	9	538.99423272339
71	11	9	17.25
72	11	9	561.8838695962
73	11	9	17.25
74	11	9	566.11903337462
75	11	9	20.35
76	11	9	588.49268061557
77	11	9	17.25
78	11	9	596.72737454184
79	11	9	23.45
80	11	9	616.99213648644
81	11	9	17.25
82	11	9	627.87350801687
83	11	9	20.35
84	11	9	650.06581195117
85	11	9	17.25
86	11	9	664.1212393582
87	11	9	20.35
90	11	9	680.30473680548
91	11	9	17.25
92	11	9	691.94422837597
93	11	9	23.45
94	11	9	709.82852380744
95	11	9	17.25
96	11	9	724.2772263152
97	11	9	20.35
98	11	9	741.11466937925
99	11	9	17.25
100	11	9	755.73600585803
101	11	9	23.45
102	11	9	770.7489541111
103	11	9	17.25
104	11	9	787.99833310191
105	11	9	20.35
106	11	9	804.73248100758
107	11	9	17.25
108	11	9	817.95070303964
109	11	9	23.45
112	11	9	833.83878281063
113	11	9	17.25
114	11	9	849.89279272602
115	11	9	20.35
116	11	9	867.14905354027
117	11	9	17.25
118	11	9	883.53445340586
119	11	9	20.35
120	11	9	898.49640094724
121	11	9	17.25
126	11	9	27.58967065343
127	11	9	17.25
129	11	9	23.360153905678
130	11	9	23.276358797693
131	11	9	21.765161856059
132	11	9	24.571973371632
133	11	9	20.875204700422
134	11	9	24.043004869375
135	11	9	20.968496780299
136	11	9	23.712958623959
137	11	9	21.007131138976
138	11	9	23.361058162976
140	11	9	21.500117901952
141	11	9	20.644853599235
142	11	9	23.833490311046
143	11	9	20.261423675715
144	11	9	19.300296679843
145	11	9	23.883865459675
146	11	9	19.086584659287
147	11	9	23.250161158637
148	11	9	21.835183311351
149	11	9	21.622245912256
151	11	9	22.852631643014
152	11	9	21.543942876783
153	11	9	22.78338852274
154	11	9	21.649283616936
155	11	9	22.559375293115
156	11	9	21.691504556897
157	11	9	20.633501951331
158	11	9	22.945158588416
159	11	9	20.328750611924
160	11	9	20.254478749131
162	11	9	23.504057606456
163	11	9	20.073274553517
164	11	9	18.984681616743
165	11	9	22.148982616743
166	11	9	18.744915071733
167	11	9	22.465823303729
168	11	9	19.017270764941
169	11	9	22.486667235665
170	11	9	20.150542674938
171	11	9	21.788135029238
173	11	9	20.477415865682
174	11	9	22.263915093181
175	11	9	20.691604880993
176	11	9	22.32501904002
177	11	9	21.113191135864
178	11	9	22.092635408951
179	11	9	21.225135434186
180	11	9	21.628295050604
181	11	9	21.387818611364
182	11	9	21.426668418553
184	11	9	21.205987506273
185	11	9	21.777016016464
186	11	9	21.645229121115
187	11	9	21.416578291311
188	11	9	21.119927500419
191	11	9	23.812201898794
192	11	9	2.0192969414243
193	11	9	14.782731280653
194	11	9	1.9486877871701
195	11	9	14.329193635395
196	11	9	1.8904372068029
197	11	9	13.028543858398
198	11	9	2.0276922811009
199	11	9	15.673575998349
200	11	9	1.5420302609686
201	11	9	10.715216563225
202	11	9	2.0729541540169
203	11	9	15.565208681352
204	11	9	1.1530048770543
205	11	9	8.799800379858
206	11	9	1.8154549681978
207	11	9	13.86068783569
208	11	9	1.0269493473025
209	11	9	8.1789322245306
210	11	9	1.9731993394531
211	11	9	14.523821526444
214	11	9	0.62098903605822
215	11	9	6.2829490785372
216	11	9	1.2489219917134
217	11	9	9.132652055869
218	11	9	2.0743879395956
219	11	9	15.425394205353
220	11	9	1.1556859048423
221	11	9	8.4990204662758
222	11	9	1.257070560328
223	11	9	8.5522961502692
224	11	9	2.0367656835425
225	11	9	15.244401082663
226	11	9	1.1284747127347
227	11	9	7.8638990765076
228	11	9	2.0154558657389
229	11	9	14.685818256982
230	11	9	1.9228193900075
231	11	9	13.243449661353
232	11	9	1.9239695249289
233	11	9	13.112633460704
236	11	9	1.8278221083782
237	11	9	13.381619367928
238	11	9	1.5087828419778
239	11	9	10.906753291619
240	11	9	1.5839217571578
241	11	9	11.998578500431
242	11	9	1.2145029790955
243	11	9	9.4283564633772
244	11	9	1.8550828651455
245	11	9	13.344601868998
246	11	9	1.1548399321408
247	11	9	9.136348233272
248	11	9	1.6751833595013
249	11	9	11.247006424353
250	11	9	2.030099042214
251	11	9	14.558835016318
252	11	9	1.47068115036
253	11	9	10.071939420321
254	11	9	1.9254769247864
255	11	9	12.253564796346
258	11	9	1.9450434225053
259	11	9	14.460993863439
260	11	9	1.7777519477921
261	11	9	11.425676433645
262	11	9	1.8419958074682
263	11	9	11.085615116928
264	11	9	1.6993804642651
265	11	9	12.253367678741
266	11	9	1.3644943435117
267	11	9	8.7868388920052
268	11	9	1.8681064435234
269	11	9	13.355637145682
270	11	9	0.9600778478876
271	11	9	7.0629418809893
272	11	9	1.7227474393835
273	11	9	12.581202987715
274	11	9	0.64836689061525
275	11	9	5.9865591780531
276	11	9	1.8861611754703
277	11	9	13.020684605201
280	11	9	1.0883038686189
281	11	9	8.2619006059108
282	11	9	1.9749294922082
283	11	9	13.800176632119
284	11	9	1.0270249413589
285	11	9	8.0479848489976
286	11	9	2.0978271622933
287	11	9	14.501854176746
288	11	9	1.3205580013925
289	11	9	9.7172973887958
290	11	9	1.9446480790526
291	11	9	13.525815653716
292	11	9	1.3931591562094
293	11	9	10.143600833403
294	11	9	1.8839786538971
295	11	9	12.908064925169
296	11	9	2.0491207488254
297	11	9	13.607667736845
298	11	9	1.6831403687666
299	11	9	11.743802026061
302	11	9	1.7687495902899
303	11	9	12.053368315599
304	11	9	1.8435027928571
305	11	9	12.789749486636
306	11	9	2.0217140158685
307	11	9	13.637264146158
308	11	9	1.8953455162165
309	11	9	12.833213813292
310	11	9	1.9266727172956
311	11	9	12.805663518439
316	11	9	2.0622739746934
317	11	9	15.340857385507
4	12	10	36.596412258176
5	12	10	17.25
6	12	10	62.61504969793
7	12	10	17.25
8	12	10	58.163870447484
9	12	10	23.45
10	12	10	89.981180012867
11	12	10	17.25
12	12	10	94.872669286392
13	12	10	20.35
14	12	10	120.23627764866
15	12	10	17.25
16	12	10	127.0074466397
17	12	10	23.45
18	12	10	149.74666378217
19	12	10	17.25
20	12	10	161.80885089342
21	12	10	20.35
24	12	10	181.73721150455
25	12	10	17.25
26	12	10	207.15569435657
27	12	10	17.25
28	12	10	207.48587262428
29	12	10	20.35
30	12	10	234.30383122798
31	12	10	17.25
32	12	10	258.5083903668
33	12	10	17.25
34	12	10	252.41504325835
35	12	10	20.35
36	12	10	285.02672874267
37	12	10	17.25
38	12	10	287.72561043321
39	12	10	23.45
40	12	10	313.35225764615
41	12	10	20.35
42	12	10	326.45451100119
43	12	10	17.25
46	12	10	336.92211845094
47	12	10	23.45
48	12	10	356.6857674085
49	12	10	17.25
50	12	10	367.81332308034
51	12	10	20.35
52	12	10	387.23373382429
53	12	10	17.25
54	12	10	400.49794446737
55	12	10	23.45
56	12	10	417.41717127739
57	12	10	17.25
58	12	10	442.41789498637
59	12	10	17.25
60	12	10	446.04702829628
61	12	10	20.35
62	12	10	469.98693669696
63	12	10	17.25
64	12	10	491.38404405866
65	12	10	20.35
68	12	10	487.65377659933
69	12	10	23.45
70	12	10	517.82376989049
71	12	10	17.25
72	12	10	541.90579904821
73	12	10	17.25
74	12	10	542.95121922673
75	12	10	20.35
76	12	10	568.8903626481
77	12	10	17.25
78	12	10	573.22412268016
79	12	10	23.45
80	12	10	597.32443854166
81	12	10	17.25
82	12	10	604.40823380372
83	12	10	20.35
84	12	10	629.54397743619
85	12	10	17.25
86	12	10	641.25828667733
87	12	10	20.35
90	12	10	659.55349301657
91	12	10	17.25
92	12	10	668.61374565644
93	12	10	23.45
94	12	10	688.9634697838
95	12	10	17.25
96	12	10	701.00719507112
97	12	10	20.35
98	12	10	719.86752049839
99	12	10	17.25
100	12	10	732.63794710721
101	12	10	23.45
102	12	10	749.42925590506
103	12	10	17.25
104	12	10	765.29452338306
105	12	10	20.35
106	12	10	782.74145897339
107	12	10	17.25
108	12	10	795.38887449099
109	12	10	23.45
112	12	10	812.03619677739
113	12	10	17.25
114	12	10	827.20627286682
115	12	10	20.35
116	12	10	844.83966768796
117	12	10	17.25
118	12	10	861.09853170718
119	12	10	20.35
120	12	10	876.38890287234
121	12	10	17.25
130	12	10	24.932272342917
131	12	10	23.701552741054
132	12	10	26.822363035849
133	12	10	22.743959266195
134	12	10	26.032920300182
135	12	10	22.555111351645
136	12	10	25.337403361461
137	12	10	22.255921199176
138	12	10	25.523641889252
140	12	10	22.498082394017
141	12	10	21.575121742683
142	12	10	25.751949809307
143	12	10	21.085623362622
144	12	10	20.086269767881
145	12	10	25.697345967179
146	12	10	19.557789434502
147	12	10	25.256002262218
148	12	10	23.703747245124
149	12	10	22.188576801798
151	12	10	24.411514996621
152	12	10	21.992403519867
153	12	10	24.284377289345
154	12	10	22.250706893197
155	12	10	24.503176817586
156	12	10	22.244551861976
157	12	10	21.309678293978
158	12	10	24.927491939254
159	12	10	21.099925144653
160	12	10	22.276368248054
162	12	10	25.718160129599
163	12	10	22.073572192994
164	12	10	20.819566372235
165	12	10	24.106867365651
166	12	10	20.29793612362
167	12	10	24.384887644989
168	12	10	20.214696863296
169	12	10	24.381808007544
170	12	10	20.845326471021
171	12	10	23.71681609729
173	12	10	20.948633613776
174	12	10	24.173180353792
175	12	10	21.064067889277
176	12	10	24.129899498419
177	12	10	21.327960975616
178	12	10	23.967918459537
179	12	10	21.489638880499
180	12	10	23.616387161501
181	12	10	22.040678438217
182	12	10	23.483023116621
184	12	10	21.914720727789
185	12	10	23.440803017077
186	12	10	22.593545620852
187	12	10	23.355980078262
188	12	10	22.722192433336
194	12	10	1.6559135452239
195	12	10	13.694304119528
196	12	10	1.9363908849959
197	12	10	14.544165609768
198	12	10	2.2503896642174
199	12	10	18.733496645451
200	12	10	1.8687545657739
201	12	10	13.537215353117
202	12	10	1.9899154308066
203	12	10	16.480252180544
204	12	10	1.5866145713463
205	12	10	11.882553519392
206	12	10	1.6244447375019
207	12	10	13.754300379814
208	12	10	1.2487900601998
209	12	10	9.900111132082
210	12	10	2.1625837262765
211	12	10	17.179773780264
214	12	10	0.99796449206496
215	12	10	8.65829291256
216	12	10	0.93026814344806
217	12	10	7.9155633415897
218	12	10	1.9184594982607
219	12	10	15.836277910317
220	12	10	0.8241996869071
221	12	10	7.1814808227277
222	12	10	0.78597308803839
223	12	10	6.6323288718643
224	12	10	1.8134805075033
225	12	10	15.14824237684
226	12	10	0.47120477521521
227	12	10	4.9655430257984
228	12	10	2.0058411035803
229	12	10	16.025513537338
230	12	10	1.8685639337728
231	12	10	14.158168815037
232	12	10	0.56633088954162
233	12	10	6.2179637030401
236	12	10	1.5588833536068
237	12	10	12.802664097173
238	12	10	0.44846064308357
239	12	10	5.5304625740915
240	12	10	1.500988766605
241	12	10	12.389048542238
242	12	10	0.60142327626098
243	12	10	6.4261218656639
244	12	10	1.9438015244715
245	12	10	15.129761443515
246	12	10	0.55304730507887
247	12	10	6.1647479943574
248	12	10	0.67617634264651
249	12	10	6.5045017733083
250	12	10	1.9823333508382
251	12	10	15.652317719682
252	12	10	0.77117453272898
253	12	10	6.9171376819205
254	12	10	2.021889498923
255	12	10	14.060525933214
258	12	10	2.214102523143
259	12	10	17.645241441894
260	12	10	2.0002976394771
261	12	10	13.809426177227
262	12	10	1.8348847554918
263	12	10	12.15455621044
264	12	10	1.9578847489087
265	12	10	14.941927084456
266	12	10	1.5530210518871
267	12	10	10.458797962527
268	12	10	1.9190643412597
269	12	10	14.903679651945
270	12	10	1.1974260983551
271	12	10	8.6817955169349
272	12	10	1.8951407718794
273	12	10	14.761024070091
274	12	10	0.69478379608299
275	12	10	6.4427362826738
276	12	10	1.9286810680526
277	12	10	14.510335271234
280	12	10	0.47121774809341
281	12	10	5.3488200552219
282	12	10	1.9092652606103
283	12	10	14.703880971112
284	12	10	0.37246300828328
285	12	10	4.880291805853
286	12	10	1.8048804583988
287	12	10	14.067852133108
288	12	10	0.21476983975252
289	12	10	4.139018636305
290	12	10	1.875283050586
291	12	10	14.370281797357
292	12	10	0.26450344631299
293	12	10	4.4332935789088
294	12	10	1.9880921108974
295	12	10	14.78136161934
296	12	10	0.65285982685324
297	12	10	6.6302222199677
298	12	10	2.0563546980685
299	12	10	15.076857582423
302	12	10	0.70873322151605
303	12	10	6.8825593037844
304	12	10	1.663787000613
305	12	10	12.829749982045
306	12	10	0.94831649973628
307	12	10	8.4289704888506
308	12	10	1.9394017869514
309	12	10	14.330154491536
310	12	10	1.6022649329169
311	12	10	12.06393458051
6	13	11	37.92894141673
7	13	11	17.25
8	13	11	30.21633302788
9	13	11	23.45
10	13	11	66.261843423946
11	13	11	17.25
12	13	11	67.677382296535
13	13	11	20.35
14	13	11	96.878716579335
15	13	11	17.25
16	13	11	100.68766818902
17	13	11	23.45
18	13	11	126.78692260219
19	13	11	17.25
20	13	11	135.50297162658
21	13	11	20.35
24	13	11	158.73732985576
25	13	11	17.25
26	13	11	185.104871875
27	13	11	17.25
28	13	11	180.62680252989
29	13	11	23.45
30	13	11	212.78008449537
31	13	11	17.25
32	13	11	237.57037729995
33	13	11	20.35
34	13	11	225.65830442782
35	13	11	20.35
36	13	11	264.48616155167
37	13	11	17.25
38	13	11	261.3951254955
39	13	11	23.45
40	13	11	288.70534487766
41	13	11	20.35
42	13	11	303.95846327898
43	13	11	17.25
46	13	11	311.44135822582
47	13	11	23.45
48	13	11	334.29217580916
49	13	11	17.25
50	13	11	342.38939197256
51	13	11	20.35
52	13	11	364.86939413142
53	13	11	17.25
54	13	11	374.82709900816
55	13	11	23.45
56	13	11	395.10520516448
57	13	11	17.25
58	13	11	420.96974711586
59	13	11	17.25
60	13	11	420.08177424827
61	13	11	20.35
62	13	11	448.85772066104
63	13	11	17.25
64	13	11	467.97706844889
65	13	11	20.35
68	13	11	460.85192337106
69	13	11	23.45
70	13	11	494.67580950477
[...]
202	13	11	2.0565242683632
203	13	11	18.434188696959
204	13	11	1.4970331733722
205	13	11	12.233315891519
206	13	11	1.8844518627669
207	13	11	16.649551550194
208	13	11	1.3233271881162
209	13	11	10.978451883051
210	13	11	1.5818217477309
211	13	11	14.590370349008
214	13	11	0.95341926387278
215	13	11	8.8213210373438
216	13	11	1.0333084707444
217	13	11	8.8982873589169
218	13	11	2.0429483640869
219	13	11	18.119322732707
220	13	11	0.95004057101649
221	13	11	8.2067229661589
222	13	11	1.7369604342031
223	13	11	12.25824914699
224	13	11	1.9780501262588
225	13	11	17.596388699643
226	13	11	1.8421810693452
227	13	11	12.54852718763
228	13	11	1.9439855265105
229	13	11	17.024333173319
230	13	11	1.456304179046
231	13	11	12.625447128333
232	13	11	0.76903008291807
233	13	11	7.5901219514565
236	13	11	1.8524189179135
237	13	11	15.775659282923
238	13	11	0.78761512404266
239	13	11	7.6249337938851
240	13	11	1.8395909657213
241	13	11	15.59904434362
242	13	11	0.41537253763091
243	13	11	5.5481212118971
244	13	11	2.0211595821078
245	13	11	17.03340090264
246	13	11	0.23539054371967
247	13	11	4.5191413941607
248	13	11	0.39627014789774
249	13	11	5.1747698281703
250	13	11	1.9123955206364
251	13	11	16.561056972069
252	13	11	0.21880918028857
253	13	11	4.1576867103499
254	13	11	2.0911031570519
255	13	11	15.902224946768
258	13	11	1.9489457777818
259	13	11	17.396216388284
260	13	11	1.9019055139918
261	13	11	14.529093642741
262	13	11	1.9054389636588
263	13	11	13.72596018323
264	13	11	2.092184089222
265	13	11	17.24506133363
266	13	11	1.7355340286713
267	13	11	12.376842007695
268	13	11	2.0495863403636
269	13	11	17.148930793638
270	13	11	1.5524398005114
271	13	11	11.256704312044
272	13	11	1.5222286594026
273	13	11	13.468429956751
274	13	11	1.0213213091868
275	13	11	8.5129409960899
276	13	11	2.1434617218049
277	13	11	17.313869514531
280	13	11	0.87630453664169
281	13	11	7.7323853657339
282	13	11	2.1285174433631
283	13	11	17.551677912273
284	13	11	0.67034316567933
285	13	11	6.6181749498111
286	13	11	1.8380830324706
287	13	11	15.483601009829
288	13	11	0.50424924023045
289	13	11	5.777639987587
290	13	11	2.0076822638628
291	13	11	16.550478835607
292	13	11	0.30034517284249
293	13	11	4.694125383925
294	13	11	2.0530658299336
295	13	11	16.611762949596
296	13	11	0.2047307899085
297	13	11	4.297646340334
298	13	11	1.9837938619266
299	13	11	16.039856595693
302	13	11	0.12818432080203
303	13	11	3.8437250259689
304	13	11	2.0012452777731
305	13	11	16.129376350873
306	13	11	-0.074659803218321
307	13	11	2.8460335490488
308	13	11	1.7179441883462
309	13	11	14.157048654075
310	13	11	-0.06577301045137
311	13	11	2.9181638842104
10	14	12	40.625872797997
11	14	12	17.25
12	14	12	38.503205230177
13	14	12	20.35
14	14	12	71.813261007371
15	14	12	17.25
16	14	12	72.415333510869
17	14	12	23.45
18	14	12	102.30830405345
19	14	12	17.25
20	14	12	107.2936509922
21	14	12	20.35
24	14	12	134.44774855154
25	14	12	17.25
26	14	12	161.80994526398
27	14	12	17.25
28	14	12	151.79197348969
29	14	12	23.45
30	14	12	190.12349448466
31	14	12	17.25
32	14	12	214.68790429408
33	14	12	20.35
34	14	12	196.86514838488
35	14	12	20.35
36	14	12	241.9299698876
37	14	12	17.25
38	14	12	233.07187062836
39	14	12	23.45
40	14	12	262.97870998169
41	14	12	20.35
42	14	12	280.18209263662
43	14	12	17.25
46	14	12	284.15061611954
47	14	12	23.45
48	14	12	310.84136946534
49	14	12	17.25
50	14	12	315.3863464253
51	14	12	20.35
52	14	12	341.63404516821
53	14	12	17.25
54	14	12	347.21889466274
55	14	12	23.45
56	14	12	372.11237921967
57	14	12	17.25
58	14	12	398.83799414188
59	14	12	17.25
60	14	12	392.24537710415
61	14	12	20.35
62	14	12	427.15735097497
63	14	12	17.25
64	14	12	442.44279023377
65	14	12	20.35
68	14	12	432.0559468284
69	14	12	23.45
70	14	12	470.53432930447
71	14	12	17.25
72	14	12	496.91070003257
73	14	12	17.25
74	14	12	490.31746292512
75	14	12	20.35
76	14	12	525.12199776566
77	14	12	17.25
78	14	12	520.19315866047
79	14	12	23.45
80	14	12	554.11467713714
81	14	12	17.25
82	14	12	552.35764849639
83	14	12	20.35
84	14	12	585.70982062025
85	14	12	17.25
86	14	12	589.55156802797
87	14	12	20.35
90	14	12	615.83819477186
91	14	12	17.25
92	14	12	615.85977795274
93	14	12	23.45
94	14	12	645.43388967568
95	14	12	17.25
96	14	12	648.80186250574
97	14	12	20.35
98	14	12	676.06573159304
99	14	12	17.25
100	14	12	680.57075506662
101	14	12	23.45
102	14	12	705.77914582994
103	14	12	17.25
104	14	12	713.84511665917
105	14	12	20.35
106	14	12	738.09669708866
107	14	12	17.25
108	14	12	744.37750640602
109	14	12	23.45
112	14	12	767.71993471485
113	14	12	17.25
114	14	12	776.28903203063
115	14	12	20.35
116	14	12	799.76317234422
117	14	12	17.25
118	14	12	810.83404995776
119	14	12	23.45
120	14	12	831.01261657666
121	14	12	20.35
133	14	12	26.568722635141
134	14	12	30.126202036721
135	14	12	25.851632435402
136	14	12	29.149970871272
137	14	12	25.193636874399
138	14	12	28.90481006094
140	14	12	24.942475189969
141	14	12	23.91347486911
142	14	12	29.646064246464
143	14	12	23.270619635356
144	14	12	23.861137804939
145	14	12	29.666246078689
146	14	12	23.483470003551
147	14	12	29.244241110591
148	14	12	26.28249024917
149	14	12	24.413185102522
151	14	12	28.300500054185
152	14	12	23.915796006711
153	14	12	27.693578666172
154	14	12	23.677285912619
155	14	12	28.488769438937
156	14	12	23.38588757375
157	14	12	22.576487761975
158	14	12	28.623790364948
159	14	12	22.036460129545
160	14	12	26.366185332025
162	14	12	29.641686247622
163	14	12	24.259368005939
164	14	12	23.373369506341
165	14	12	28.209447228718
166	14	12	22.65140902273
167	14	12	28.428255037575
168	14	12	22.214622274991
169	14	12	27.671163191004
170	14	12	22.594971130324
171	14	12	27.60174338913
173	14	12	22.412515389869
174	14	12	28.291277736995
175	14	12	22.320374949945
176	14	12	27.98301230947
177	14	12	22.502511908109
178	14	12	27.830998635669
179	14	12	22.212805638892
180	14	12	27.635991298731
181	14	12	22.694731464962
182	14	12	27.264599129679
184	14	12	22.47402075915
185	14	12	27.226323262518
186	14	12	22.782499610893
187	14	12	26.808812473335
188	14	12	22.675069316862
200	14	12	2.09536864653
201	14	12	17.540996635602
202	14	12	2.0367574681761
203	14	12	19.87683188143
204	14	12	1.7994879103841
205	14	12	15.164344137013
206	14	12	1.928115647044
207	14	12	18.349646272642
208	14	12	1.6143884871066
209	14	12	13.604589890346
210	14	12	1.7993464239564
211	14	12	17.269636939594
214	14	12	1.4909735320792
215	14	12	12.709149467273
216	14	12	1.3050446556829
217	14	12	11.048034103803
218	14	12	1.8511660730699
219	14	12	18.17314259421
220	14	12	1.2349557017178
221	14	12	10.322593874064
222	14	12	2.0379076028546
223	14	12	15.235125651166
224	14	12	1.9908499852522
225	14	12	19.186718243548
226	14	12	2.0834994997038
227	14	12	15.230795353642
228	14	12	2.0442533218628
229	14	12	19.238792744941
230	14	12	1.1224388250008
231	14	12	11.164636053891
232	14	12	1.4555782178061
233	14	12	12.195844162616
236	14	12	2.0365661396505
237	14	12	18.459349179708
238	14	12	1.1357773628016
239	14	12	10.073636950188
240	14	12	1.5696104111057
241	14	12	14.883806802528
242	14	12	1.0112064817911
243	14	12	9.248585042651
244	14	12	1.9644330392429
245	14	12	18.107652891313
246	14	12	0.9059451680541
247	14	12	8.5255426586077
248	14	12	0.87053932009938
249	14	12	7.9986573307536
250	14	12	1.7839029050572
251	14	12	16.963245965227
252	14	12	0.71772580460322
253	14	12	6.9732766028378
254	14	12	1.9987139269198
255	14	12	16.775458775251
258	14	12	1.9745803402411
259	14	12	19.051539919933
260	14	12	0.28389029895382
261	14	12	5.2589365181896
262	14	12	0.64836417044746
263	14	12	7.069360248873
264	14	12	2.0103957738445
265	14	12	18.212202830314
266	14	12	0.61793887043877
267	14	12	6.649665022004
268	14	12	1.9937810522225
269	14	12	18.263571404394
270	14	12	0.44748561118389
271	14	12	5.5900680657346
272	14	12	1.7671265240573
273	14	12	16.186671429251
274	14	12	0.72832335011633
275	14	12	7.231618659901
276	14	12	1.741465570035
277	14	12	15.968367031588
280	14	12	0.58757723945127
281	14	12	6.4049556821696
282	14	12	1.9895799398399
283	14	12	18.131970302977
284	14	12	0.5859638949885
285	14	12	6.3660103095335
286	14	12	2.0150297785807
287	14	12	18.073284270474
288	14	12	0.67030169226259
289	14	12	6.8832435222977
290	14	12	1.8553979122685
291	14	12	16.888625941674
292	14	12	0.42282158555087
293	14	12	5.4575025006878
294	14	12	1.9665383072966
295	14	12	17.490678864423
296	14	12	0.44932223683656
297	14	12	5.7421417192491
298	14	12	1.797782151131
299	14	12	16.11033113581
302	14	12	0.43111571055981
303	14	12	5.5777849761359
304	14	12	1.784274967668
305	14	12	15.995398900865
306	14	12	0.26361379326015
307	14	12	4.7488087508665
308	14	12	1.7348882067273
309	14	12	15.392177876049
310	14	12	0.018649893977429
311	14	12	3.3827683556132
14	15	13	44.994206100829
15	15	13	17.25
16	15	13	42.270240309037
17	15	13	23.45
18	15	13	76.220633764491
19	15	13	17.25
20	15	13	77.314320587773
21	15	13	20.35
24	15	13	108.75820280725
25	15	13	17.25
26	15	13	137.12061036087
27	15	13	17.25
28	15	13	121.03092624592
29	15	13	23.45
30	15	13	166.18386899873
31	15	13	17.25
32	15	13	189.82544685403
33	15	13	20.35
34	15	13	166.06588572471
35	15	13	20.35
36	15	13	217.30928605834
37	15	13	17.25
38	15	13	202.65464264966
39	15	13	23.45
40	15	13	236.07978709047
41	15	13	20.35
42	15	13	254.90060173724
43	15	13	17.25
46	15	13	254.80294742626
47	15	13	23.45
48	15	13	286.09178399129
49	15	13	17.25
50	15	13	286.63563049856
51	15	13	20.35
52	15	13	317.27152361211
53	15	13	17.25
54	15	13	317.62899142208
55	15	13	23.45
56	15	13	348.10950682941
57	15	13	17.25
58	15	13	375.70765017561
59	15	13	17.25
60	15	13	362.63282298254
61	15	13	20.35
62	15	13	404.5431272285
63	15	13	17.25
64	15	13	415.05663098015
65	15	13	20.35
68	15	13	401.44025598153
69	15	13	23.45
70	15	13	446.06713031582
71	15	13	17.25
72	15	13	473.36904140842
73	15	13	17.25
74	15	13	461.47405218936
75	15	13	20.35
76	15	13	502.11386620497
77	15	13	17.25
78	15	13	490.72834350721
79	15	13	23.45
80	15	13	531.41118465983
81	15	13	17.25
82	15	13	523.72694463595
83	15	13	20.35
84	15	13	562.91607298744
85	15	13	17.25
86	15	13	561.01684562638
87	15	13	20.35
90	15	13	593.17497170765
91	15	13	17.25
92	15	13	586.48811867332
93	15	13	23.45
94	15	13	622.93779799073
95	15	13	17.25
96	15	13	619.88157979804
97	15	13	20.35
98	15	13	653.55753129467
99	15	13	17.25
100	15	13	651.67589039275
101	15	13	23.45
102	15	13	683.38840772329
103	15	13	17.25
104	15	13	685.04422578972
105	15	13	20.35
106	15	13	715.39879465923
107	15	13	17.25
108	15	13	716.04267693795
109	15	13	23.45
112	15	13	745.17806539116
113	15	13	17.25
114	15	13	748.22062797733
115	15	13	20.35
116	15	13	776.97985091667
117	15	13	17.25
118	15	13	782.96418156547
119	15	13	23.45
120	15	13	807.35140021687
121	15	13	20.35
135	15	13	27.652707004345
136	15	13	30.983864311275
137	15	13	26.830654951667
138	15	13	30.956628554349
140	15	13	26.427240897893
141	15	13	25.37399187566
142	15	13	31.71134545657
143	15	13	24.49847253831
144	15	13	25.676349277439
145	15	13	31.685060764537
146	15	13	25.562062674036
147	15	13	31.336860202466
148	15	13	27.441027227117
149	15	13	26.057547895419
151	15	13	30.246052132214
152	15	13	25.499471139106
153	15	13	29.355673342612
154	15	13	24.97747866712
155	15	13	30.524999292178
156	15	13	24.541666651919
157	15	13	23.654251552053
158	15	13	30.420308907698
159	15	13	23.124183586714
160	15	13	28.329218814299
162	15	13	31.382921034663
163	15	13	24.711559550533
164	15	13	23.80462731265
165	15	13	29.475590874187
166	15	13	23.1589839582
167	15	13	30.292859816053
168	15	13	22.979795793521
169	15	13	29.473167976567
170	15	13	23.026666833864
171	15	13	29.244424831031
173	15	13	22.792887995095
174	15	13	30.187056048299
175	15	13	22.669005863397
176	15	13	29.816260289715
177	15	13	22.599980916668
178	15	13	29.694761866617
179	15	13	22.414581322895
180	15	13	29.661494932655
181	15	13	22.76267473781
182	15	13	29.196415702624
184	15	13	22.661932132065
185	15	13	28.832294640308
186	15	13	22.867141837881
187	15	13	28.76221886182
188	15	13	24.503275485213
204	15	13	1.8010745689436
205	15	13	16.400247243073
206	15	13	1.8338934400026
207	15	13	19.046312101197
208	15	13	1.6370180772685
209	15	13	14.773871596315
210	15	13	2.0518184934091
211	15	13	20.651561378659
214	15	13	1.4847657079235
215	15	13	13.546285851051
216	15	13	1.4605170065497
217	15	13	12.774468904521
218	15	13	2.0652812101063
219	15	13	21.369422342563
220	15	13	1.2278529029544
221	15	13	10.899493062952
222	15	13	1.8152114724997
223	15	13	15.144924703068
224	15	13	2.0188146858476
225	15	13	20.992929364263
226	15	13	2.0785926704854
227	15	13	16.691175177989
228	15	13	2.0926190918754
229	15	13	21.268286156283
230	15	13	1.1585369779466
231	15	13	12.0043520616
232	15	13	1.6443627928969
233	15	13	14.327855458396
236	15	13	1.9455520780292
237	15	13	19.306885063638
238	15	13	1.5836751323948
239	15	13	13.604041714135
240	15	13	1.6620946764397
241	15	13	16.621914434811
242	15	13	1.300192754501
243	15	13	11.58104052101
244	15	13	2.0362298532413
245	15	13	20.189583020344
246	15	13	1.1557790781692
247	15	13	10.495271962105
248	15	13	1.0777637900777
249	15	13	9.6177066414394
250	15	13	1.7965185427503
251	15	13	18.348822200797
252	15	13	1.0877234571687
253	15	13	9.4295936717124
254	15	13	1.9630334822741
255	15	13	17.97917851314
258	15	13	1.7412347870413
259	15	13	18.648672095923
260	15	13	0.45219154459364
261	15	13	6.3891393059028
262	15	13	0.431257806309
263	15	13	5.9785360291129
264	15	13	1.2661436454694
265	15	13	13.891805706535
266	15	13	0.5075749354702
267	15	13	6.2075682595679
268	15	13	1.8646047784784
269	15	13	18.752013570216
270	15	13	0.76517351853002
271	15	13	7.577190759652
272	15	13	1.8020047855633
273	15	13	17.69660578603
274	15	13	0.43169570353967
275	15	13	5.744357940775
276	15	13	1.6426814419004
277	15	13	16.408694648377
280	15	13	0.38037260522594
281	15	13	5.3928310715689
282	15	13	1.8957783113048
283	15	13	18.899340774065
284	15	13	0.34863091345282
285	15	13	5.1843471789984
286	15	13	1.8332479802449
287	15	13	18.170221712371
288	15	13	0.097469008558221
289	15	13	3.7974403024387
290	15	13	1.8637632309483
291	15	13	18.299248950743
292	15	13	0.20177568400226
293	15	13	4.3215686579726
294	15	13	2.0255036339234
295	15	13	19.430769679262
296	15	13	0.067943272848151
297	15	13	3.670333422525
298	15	13	1.9318165729451
299	15	13	18.410464194333
302	15	13	0.18791137291497
303	15	13	4.3046306163667
304	15	13	1.60597137779
305	15	13	15.874262020658
306	15	13	0.084642226988116
307	15	13	3.7841810622445
308	15	13	1.9534063884849
309	15	13	18.235967803307
310	15	13	1.8282061683503
311	15	13	14.447204812247
18	16	14	48.335268461751
19	16	14	17.25
20	16	14	45.501125454228
21	16	14	20.35
24	16	14	81.472103381119
25	16	14	17.25
26	16	14	110.9710087941
27	16	14	17.25
28	16	14	88.253095411894
29	16	14	23.45
30	16	14	140.85713872467
31	16	14	17.25
32	16	14	163.18670112294
33	16	14	20.35
34	16	14	133.34893765346
35	16	14	20.35
36	16	14	190.78670271849
37	16	14	17.25
38	16	14	170.21666069814
39	16	14	23.45
40	16	14	207.99448304282
41	16	14	20.35
42	16	14	228.1044981781
43	16	14	17.25
46	16	14	223.4092078921
47	16	14	23.45
48	16	14	259.89379332423
49	16	14	17.25
50	16	14	256.7987856047
51	16	14	20.35
52	16	14	291.57329299797
53	16	14	17.25
54	16	14	286.05397860172
55	16	14	23.45
56	16	14	322.91373624635
57	16	14	17.25
58	16	14	351.42188112599
59	16	14	17.25
60	16	14	331.10701328397
61	16	14	20.35
62	16	14	380.84804815731
63	16	14	17.25
64	16	14	385.5900056846
65	16	14	20.35
68	16	14	369.01934714753
69	16	14	23.45
70	16	14	421.0249387839
71	16	14	17.25
72	16	14	449.21557181822
73	16	14	17.25
74	16	14	431.09890100176
75	16	14	20.35
76	16	14	478.49865200734
77	16	14	17.25
78	16	14	459.37059150387
79	16	14	23.45
80	16	14	508.18610324416
81	16	14	17.25
82	16	14	493.11965332333
83	16	14	20.35
84	16	14	539.67781226835
85	16	14	17.25
86	16	14	530.8706462398
87	16	14	20.35
90	16	14	570.11150720646
91	16	14	17.25
92	16	14	555.09292734417
93	16	14	23.45
94	16	14	600.10361408671
95	16	14	17.25
96	16	14	588.99574541202
97	16	14	20.35
98	16	14	630.74762011038
99	16	14	17.25
100	16	14	621.02426614308
101	16	14	23.45
102	16	14	660.7423347525
103	16	14	17.25
104	16	14	654.51929558264
105	16	14	20.35
106	16	14	692.57187832724
107	16	14	17.25
108	16	14	685.69829184353
109	16	14	23.45
112	16	14	722.50909857499
113	16	14	17.25
114	16	14	718.19177041326
115	16	14	20.35
116	16	14	754.12379283112
117	16	14	17.25
118	16	14	753.1791490487
119	16	14	23.45
120	16	14	781.78512282087
121	16	14	20.35
137	16	14	28.788565049028
138	16	14	32.636187335338
140	16	14	28.084620975992
141	16	14	26.857305318326
142	16	14	33.271322746153
143	16	14	26.003992273045
144	16	14	27.420275748596
145	16	14	33.322552295018
146	16	14	27.359366621774
147	16	14	33.273373226131
148	16	14	28.611224753757
149	16	14	27.409423726667
151	16	14	32.219017698621
152	16	14	26.740449979252
153	16	14	30.180059484578
154	16	14	26.242213832711
155	16	14	32.504291266135
156	16	14	25.573885650864
157	16	14	24.89140748851
158	16	14	32.425979973101
159	16	14	24.284747813544
160	16	14	30.365576043298
162	16	14	33.217305513013
163	16	14	25.35995648688
164	16	14	24.478148004183
165	16	14	31.100413131959
166	16	14	23.873327194017
167	16	14	32.146545987339
168	16	14	23.515448066842
169	16	14	31.550116482068
170	16	14	23.497650746027
171	16	14	30.990486515448
173	16	14	23.183157174283
174	16	14	32.365422512494
175	16	14	22.940251815511
176	16	14	31.842673328296
177	16	14	22.925166189647
178	16	14	31.4642207832
179	16	14	22.765428434346
180	16	14	31.42514013282
181	16	14	22.928835535934
182	16	14	31.25230786162
184	16	14	22.718213777577
185	16	14	30.991930345404
186	16	14	22.973169296231
187	16	14	30.650370044741
188	16	14	26.425303665648
208	16	14	1.9579100973611
209	16	14	18.286934500381
210	16	14	1.6795587809896
211	16	14	19.105865417336
214	16	14	1.6573800780998
215	16	14	15.728945749568
216	16	14	1.4833134426657
217	16	14	13.796123301951
218	16	14	1.5599772895835
219	16	14	18.625893613206
220	16	14	1.5055197347344
221	16	14	13.423867002151
222	16	14	1.7439264711575
223	16	14	15.8616512202
224	16	14	1.6374915304805
225	16	14	19.285861910364
226	16	14	1.7973039477378
227	16	14	16.172400282621
228	16	14	1.9365130236652
229	16	14	21.646788487952
230	16	14	1.1701975266403
231	16	14	12.722699773799
232	16	14	1.3518758312482
233	16	14	13.264548820396
236	16	14	1.9729655664065
237	16	14	21.073547519092
238	16	14	1.2409788401458
239	16	14	12.163741855638
240	16	14	0.82438614196656
241	16	14	11.101382391688
242	16	14	1.2647351655903
243	16	14	12.044034640879
244	16	14	1.9792919739569
245	16	14	21.355308440054
246	16	14	1.0322189989448
247	16	14	10.250688510094
248	16	14	1.2371559364579
249	16	14	11.156940891219
250	16	14	2.0056710654031
251	16	14	21.49744457179
252	16	14	1.1605642268307
253	16	14	10.396884099448
254	16	14	2.0363572289981
255	16	14	20.063637500743
258	16	14	1.8343844783492
259	16	14	20.783166262605
260	16	14	0.64839693634677
261	16	14	7.802874182299
262	16	14	0.67352069153335
263	16	14	7.6189852906674
264	16	14	1.6248222577721
265	16	14	17.567539799957
266	16	14	0.71434323581658
267	16	14	7.6285343115332
268	16	14	1.8536861712858
269	16	14	20.090694712652
270	16	14	0.53565227332033
271	16	14	6.481293508121
272	16	14	2.0769485055003
273	16	14	21.325403869244
274	16	14	0.47098391216315
275	16	14	6.1091994443988
276	16	14	1.7460616844171
277	16	14	18.395330912537
280	16	14	0.3902691791882
281	16	14	5.5598844272964
282	16	14	2.1783664641949
283	16	14	22.794674341076
284	16	14	0.27124595211366
285	16	14	4.8314854734197
286	16	14	2.0264130385802
287	16	14	21.17959786796
288	16	14	0.32518527297976
289	16	14	5.1255857436967
290	16	14	1.7694589165831
291	16	14	18.922978713126
292	16	14	0.35084711145076
293	16	14	5.2230497458292
294	16	14	1.763645200165
295	16	14	18.849688953528
296	16	14	0.16616079812386
297	16	14	4.2478395613052
298	16	14	2.0558921589959
299	16	14	20.921996966085
302	16	14	0.056281645511785
303	16	14	3.5972402264863
304	16	14	2.1596357050957
305	16	14	21.485399637719
306	16	14	0.10602745834922
307	16	14	3.9252951906989
308	16	14	1.8881511829212
309	16	14	19.195843285663
310	16	14	1.9220281804353
311	16	14	16.32982953623

